REMARK  Name = ../refined-set-2016/3k00/3k00_pocket.pdb
REMARK  256 active torsions:
REMARK  status: ('A' for Active; 'I' for Inactive)
REMARK    1  A    between atoms: _1  and  _3
REMARK    2  A    between atoms: _3  and  _4
REMARK    3  A    between atoms: _3  and  _6
REMARK    4  A    between atoms: _6  and  _7
REMARK    5  A    between atoms: _10  and  _12
REMARK    6  A    between atoms: _12  and  _13
REMARK    7  A    between atoms: _12  and  _15
REMARK    8  A    between atoms: _15  and  _16
REMARK    9  A    between atoms: _19  and  _21
REMARK   10  A    between atoms: _21  and  _22
REMARK   11  A    between atoms: _21  and  _24
REMARK   12  A    between atoms: _24  and  _25
REMARK   13  A    between atoms: _27  and  _29
REMARK   14  A    between atoms: _29  and  _30
REMARK   15  A    between atoms: _29  and  _32
REMARK   16  A    between atoms: _32  and  _33
REMARK   17  A    between atoms: _38  and  _40
REMARK   18  A    between atoms: _40  and  _41
REMARK   19  A    between atoms: _40  and  _43
REMARK   20  A    between atoms: _43  and  _44
REMARK   21  A    between atoms: _44  and  _45
REMARK   22  A    between atoms: _48  and  _50
REMARK   23  A    between atoms: _50  and  _51
REMARK   24  A    between atoms: _54  and  _56
REMARK   25  A    between atoms: _56  and  _57
REMARK   26  A    between atoms: _56  and  _59
REMARK   27  A    between atoms: _59  and  _60
REMARK   28  A    between atoms: _60  and  _61
REMARK   29  A    between atoms: _64  and  _66
REMARK   30  A    between atoms: _66  and  _67
REMARK   31  A    between atoms: _66  and  _69
REMARK   32  A    between atoms: _69  and  _70
REMARK   33  A    between atoms: _70  and  _71
REMARK   34  A    between atoms: _71  and  _72
REMARK   35  A    between atoms: _72  and  _73
REMARK   36  A    between atoms: _77  and  _79
REMARK   37  A    between atoms: _79  and  _80
REMARK   38  A    between atoms: _79  and  _82
REMARK   39  A    between atoms: _82  and  _83
REMARK   40  A    between atoms: _88  and  _89
REMARK   41  A    between atoms: _91  and  _93
REMARK   42  A    between atoms: _93  and  _94
REMARK   43  A    between atoms: _93  and  _96
REMARK   44  A    between atoms: _96  and  _97
REMARK   45  A    between atoms: _102  and  _104
REMARK   46  A    between atoms: _104  and  _105
REMARK   47  A    between atoms: _104  and  _107
REMARK   48  A    between atoms: _111  and  _112
REMARK   49  A    between atoms: _117  and  _119
REMARK   50  A    between atoms: _119  and  _120
REMARK   51  A    between atoms: _119  and  _122
REMARK   52  A    between atoms: _122  and  _123
REMARK   53  A    between atoms: _129  and  _131
REMARK   54  A    between atoms: _131  and  _132
REMARK   55  A    between atoms: _134  and  _136
REMARK   56  A    between atoms: _136  and  _137
REMARK   57  A    between atoms: _136  and  _139
REMARK   58  A    between atoms: _139  and  _140
REMARK   59  A    between atoms: _140  and  _141
REMARK   60  A    between atoms: _144  and  _146
REMARK   61  A    between atoms: _146  and  _147
REMARK   62  A    between atoms: _150  and  _152
REMARK   63  A    between atoms: _152  and  _153
REMARK   64  A    between atoms: _152  and  _155
REMARK   65  A    between atoms: _155  and  _156
REMARK   66  A    between atoms: _161  and  _163
REMARK   67  A    between atoms: _163  and  _164
REMARK   68  A    between atoms: _167  and  _169
REMARK   69  A    between atoms: _169  and  _170
REMARK   70  A    between atoms: _169  and  _172
REMARK   71  A    between atoms: _172  and  _173
REMARK   72  A    between atoms: _173  and  _174
REMARK   73  A    between atoms: _174  and  _175
REMARK   74  A    between atoms: _175  and  _176
REMARK   75  A    between atoms: _180  and  _182
REMARK   76  A    between atoms: _182  and  _183
REMARK   77  A    between atoms: _182  and  _185
REMARK   78  A    between atoms: _185  and  _186
REMARK   79  A    between atoms: _186  and  _187
REMARK   80  A    between atoms: _187  and  _188
REMARK   81  A    between atoms: _188  and  _189
REMARK   82  A    between atoms: _193  and  _195
REMARK   83  A    between atoms: _195  and  _196
REMARK   84  A    between atoms: _195  and  _198
REMARK   85  A    between atoms: _198  and  _199
REMARK   86  A    between atoms: _199  and  _200
REMARK   87  A    between atoms: _200  and  _201
REMARK   88  A    between atoms: _210  and  _212
REMARK   89  A    between atoms: _212  and  _213
REMARK   90  A    between atoms: _212  and  _215
REMARK   91  A    between atoms: _215  and  _216
REMARK   92  A    between atoms: _216  and  _217
REMARK   93  A    between atoms: _220  and  _222
REMARK   94  A    between atoms: _222  and  _223
REMARK   95  A    between atoms: _222  and  _225
REMARK   96  A    between atoms: _228  and  _230
REMARK   97  A    between atoms: _230  and  _231
REMARK   98  A    between atoms: _234  and  _236
REMARK   99  A    between atoms: _236  and  _237
REMARK  100  A    between atoms: _236  and  _239
REMARK  101  A    between atoms: _239  and  _240
REMARK  102  A    between atoms: _250  and  _252
REMARK  103  A    between atoms: _252  and  _253
REMARK  104  A    between atoms: _252  and  _255
REMARK  105  A    between atoms: _258  and  _260
REMARK  106  A    between atoms: _260  and  _261
REMARK  107  A    between atoms: _260  and  _263
REMARK  108  A    between atoms: _263  and  _264
REMARK  109  A    between atoms: _267  and  _269
REMARK  110  A    between atoms: _269  and  _270
REMARK  111  A    between atoms: _269  and  _272
REMARK  112  A    between atoms: _272  and  _273
REMARK  113  A    between atoms: _279  and  _281
REMARK  114  A    between atoms: _281  and  _282
REMARK  115  A    between atoms: _281  and  _284
REMARK  116  A    between atoms: _284  and  _285
REMARK  117  A    between atoms: _285  and  _286
REMARK  118  A    between atoms: _291  and  _293
REMARK  119  A    between atoms: _293  and  _294
REMARK  120  A    between atoms: _293  and  _296
REMARK  121  A    between atoms: _299  and  _301
REMARK  122  A    between atoms: _301  and  _302
REMARK  123  A    between atoms: _301  and  _304
REMARK  124  A    between atoms: _304  and  _305
REMARK  125  A    between atoms: _308  and  _310
REMARK  126  A    between atoms: _310  and  _311
REMARK  127  A    between atoms: _310  and  _313
REMARK  128  A    between atoms: _313  and  _314
REMARK  129  A    between atoms: _317  and  _319
REMARK  130  A    between atoms: _319  and  _320
REMARK  131  A    between atoms: _319  and  _322
REMARK  132  A    between atoms: _322  and  _323
REMARK  133  A    between atoms: _326  and  _328
REMARK  134  A    between atoms: _328  and  _329
REMARK  135  A    between atoms: _328  and  _331
REMARK  136  A    between atoms: _331  and  _332
REMARK  137  A    between atoms: _335  and  _337
REMARK  138  A    between atoms: _337  and  _338
REMARK  139  A    between atoms: _337  and  _340
REMARK  140  A    between atoms: _340  and  _341
REMARK  141  A    between atoms: _341  and  _342
REMARK  142  A    between atoms: _342  and  _343
REMARK  143  A    between atoms: _352  and  _354
REMARK  144  A    between atoms: _354  and  _355
REMARK  145  A    between atoms: _354  and  _357
REMARK  146  A    between atoms: _357  and  _358
REMARK  147  A    between atoms: _361  and  _363
REMARK  148  A    between atoms: _363  and  _364
REMARK  149  A    between atoms: _363  and  _366
REMARK  150  A    between atoms: _366  and  _367
REMARK  151  A    between atoms: _371  and  _372
REMARK  152  A    between atoms: _377  and  _379
REMARK  153  A    between atoms: _379  and  _380
REMARK  154  A    between atoms: _379  and  _382
REMARK  155  A    between atoms: _382  and  _383
REMARK  156  A    between atoms: _388  and  _389
REMARK  157  A    between atoms: _391  and  _393
REMARK  158  A    between atoms: _393  and  _394
REMARK  159  A    between atoms: _393  and  _396
REMARK  160  A    between atoms: _396  and  _397
REMARK  161  A    between atoms: _407  and  _409
REMARK  162  A    between atoms: _409  and  _410
REMARK  163  A    between atoms: _409  and  _412
REMARK  164  A    between atoms: _412  and  _413
REMARK  165  A    between atoms: _419  and  _421
REMARK  166  A    between atoms: _421  and  _422
REMARK  167  A    between atoms: _421  and  _424
REMARK  168  A    between atoms: _424  and  _425
REMARK  169  A    between atoms: _428  and  _430
REMARK  170  A    between atoms: _430  and  _431
REMARK  171  A    between atoms: _430  and  _433
REMARK  172  A    between atoms: _433  and  _434
REMARK  173  A    between atoms: _444  and  _446
REMARK  174  A    between atoms: _446  and  _447
REMARK  175  A    between atoms: _446  and  _449
REMARK  176  A    between atoms: _449  and  _450
REMARK  177  A    between atoms: _450  and  _451
REMARK  178  A    between atoms: _453  and  _455
REMARK  179  A    between atoms: _455  and  _456
REMARK  180  A    between atoms: _455  and  _458
REMARK  181  A    between atoms: _458  and  _459
REMARK  182  A    between atoms: _464  and  _466
REMARK  183  A    between atoms: _466  and  _467
REMARK  184  A    between atoms: _470  and  _471
REMARK  185  A    between atoms: _476  and  _478
REMARK  186  A    between atoms: _478  and  _479
REMARK  187  A    between atoms: _478  and  _481
REMARK  188  A    between atoms: _481  and  _482
REMARK  189  A    between atoms: _492  and  _494
REMARK  190  A    between atoms: _494  and  _495
REMARK  191  A    between atoms: _499  and  _500
REMARK  192  A    between atoms: _505  and  _507
REMARK  193  A    between atoms: _507  and  _508
REMARK  194  A    between atoms: _507  and  _510
REMARK  195  A    between atoms: _510  and  _511
REMARK  196  A    between atoms: _511  and  _512
REMARK  197  A    between atoms: _517  and  _519
REMARK  198  A    between atoms: _519  and  _520
REMARK  199  A    between atoms: _522  and  _524
REMARK  200  A    between atoms: _524  and  _525
REMARK  201  A    between atoms: _527  and  _529
REMARK  202  A    between atoms: _529  and  _530
REMARK  203  A    between atoms: _529  and  _532
REMARK  204  A    between atoms: _532  and  _533
REMARK  205  A    between atoms: _543  and  _545
REMARK  206  A    between atoms: _545  and  _546
REMARK  207  A    between atoms: _545  and  _548
REMARK  208  A    between atoms: _548  and  _549
REMARK  209  A    between atoms: _552  and  _554
REMARK  210  A    between atoms: _554  and  _555
REMARK  211  A    between atoms: _554  and  _557
REMARK  212  A    between atoms: _557  and  _558
REMARK  213  A    between atoms: _561  and  _563
REMARK  214  A    between atoms: _563  and  _564
REMARK  215  A    between atoms: _563  and  _566
REMARK  216  A    between atoms: _566  and  _567
REMARK  217  A    between atoms: _567  and  _568
REMARK  218  A    between atoms: _568  and  _569
REMARK  219  A    between atoms: _578  and  _580
REMARK  220  A    between atoms: _580  and  _581
REMARK  221  A    between atoms: _580  and  _583
REMARK  222  A    between atoms: _583  and  _584
REMARK  223  A    between atoms: _594  and  _596
REMARK  224  A    between atoms: _596  and  _597
REMARK  225  A    between atoms: _600  and  _602
REMARK  226  A    between atoms: _602  and  _603
REMARK  227  A    between atoms: _602  and  _605
REMARK  228  A    between atoms: _605  and  _606
REMARK  229  A    between atoms: _606  and  _607
REMARK  230  A    between atoms: _610  and  _612
REMARK  231  A    between atoms: _612  and  _613
REMARK  232  A    between atoms: _615  and  _617
REMARK  233  A    between atoms: _617  and  _618
REMARK  234  A    between atoms: _617  and  _620
REMARK  235  A    between atoms: _620  and  _621
REMARK  236  A    between atoms: _626  and  _628
REMARK  237  A    between atoms: _628  and  _629
REMARK  238  A    between atoms: _632  and  _634
REMARK  239  A    between atoms: _634  and  _635
REMARK  240  A    between atoms: _634  and  _637
REMARK  241  A    between atoms: _637  and  _638
REMARK  242  A    between atoms: _641  and  _643
REMARK  243  A    between atoms: _643  and  _644
REMARK  244  A    between atoms: _643  and  _646
REMARK  245  A    between atoms: _646  and  _647
REMARK  246  A    between atoms: _653  and  _655
REMARK  247  A    between atoms: _655  and  _656
REMARK  248  A    between atoms: _655  and  _658
REMARK  249  A    between atoms: _658  and  _659
REMARK  250  A    between atoms: _659  and  _660
REMARK  251  A    between atoms: _663  and  _665
REMARK  252  A    between atoms: _665  and  _666
REMARK  253  A    between atoms: _665  and  _668
REMARK  254  A    between atoms: _668  and  _669
REMARK  255  A    between atoms: _669  and  _670
REMARK  256  A    between atoms: _670  and  _671
REMARK                            x       y       z     vdW  Elec       q    Type
REMARK                         _______ _______ _______ _____ _____    ______ ____
ROOT
ATOM      1  C   ASN A   4      -5.393   0.558  10.260  0.00  0.00    +0.241 C 
ATOM      2  N   GLU A   5      -6.617   0.883   9.862  0.00  0.00    -0.297 N 
ATOM      3  H   GLU A   5      -7.436   0.569  10.421  0.00  0.00    +0.150 HD
ATOM      4  O   ASN A   4      -4.382   0.952   9.669  0.00  0.00    -0.273 OA
ENDROOT
BRANCH   2   5
ATOM      5  CA  GLU A   5      -6.834   1.678   8.646  0.00  0.00    +0.149 C 
BRANCH   5   6
ATOM      6  C   GLU A   5      -6.139   3.056   8.659  0.00  0.00    +0.241 C 
ATOM      7  N   ALA A   6      -6.039   3.670   9.837  0.00  0.00    -0.297 N 
ATOM      8  H   ALA A   6      -6.418   3.201  10.684  0.00  0.00    +0.150 HD
ATOM      9  O   GLU A   5      -5.696   3.538   7.615  0.00  0.00    -0.273 OA
BRANCH   7  10
ATOM     10  CA  ALA A   6      -5.408   4.994   9.975  0.00  0.00    +0.149 C 
ATOM     11  CB  ALA A   6      -5.921   5.695  11.219  0.00  0.00    +0.031 C 
BRANCH  10  12
ATOM     12  C   ALA A   6      -3.871   4.918   9.995  0.00  0.00    +0.241 C 
ATOM     13  N   GLU A   7      -3.345   3.746  10.363  0.00  0.00    -0.297 N 
ATOM     14  H   GLU A   7      -3.981   2.936  10.510  0.00  0.00    +0.150 HD
ATOM     15  O   ALA A   6      -3.179   5.910   9.681  0.00  0.00    -0.273 OA
BRANCH  13  16
ATOM     16  CA  GLU A   7      -1.912   3.559  10.567  0.00  0.00    +0.149 C 
BRANCH  16  17
ATOM     17  C   GLU A   7      -1.196   2.979   9.341  0.00  0.00    +0.241 C 
ATOM     18  O   GLU A   7       0.035   3.173   9.157  0.00  0.00    -0.273 OA
ATOM     19  N   LYS A   8      -1.947   2.222   8.539  0.00  0.00    -0.298 N 
ATOM     20  H   LYS A   8      -2.983   2.262   8.624  0.00  0.00    +0.150 HD
BRANCH  19  21
ATOM     21  CA  LYS A   8      -1.343   1.336   7.541  0.00  0.00    +0.137 C 
BRANCH  21  22
ATOM     22  C   LYS A   8      -0.612   2.023   6.386  0.00  0.00    +0.227 C 
ATOM     23  O   LYS A   8       0.367   1.469   5.872  0.00  0.00    -0.286 OA
ENDBRANCH  21  22
BRANCH  21  24
ATOM     24  CB  LYS A   8      -2.350   0.304   7.022  0.00  0.00    +0.028 C 
BRANCH  24  25
ATOM     25  CG  LYS A   8      -3.544   0.850   6.238  0.00  0.00    -0.000 C 
BRANCH  25  26
ATOM     26  CD  LYS A   8      -4.380  -0.336   5.759  0.00  0.00    -0.024 C 
BRANCH  26  27
ATOM     27  CE  LYS A   8      -5.564   0.091   4.913  0.00  0.00    -0.086 C 
BRANCH  27  28
ATOM     28  NZ  LYS A   8      -6.490  -1.066   4.704  0.00  0.00    +0.380 N 
ATOM     29  HZ1 LYS A   8      -6.833  -1.405   5.626  0.00  0.00    -0.089 HD
ATOM     30  HZ2 LYS A   8      -5.981  -1.832   4.219  0.00  0.00    -0.089 HD
ATOM     31  HZ3 LYS A   8      -7.297  -0.762   4.123  0.00  0.00    -0.089 HD
ENDBRANCH  27  28
ENDBRANCH  26  27
ENDBRANCH  25  26
ENDBRANCH  24  25
ENDBRANCH  21  24
ENDBRANCH  19  21
ENDBRANCH  16  17
BRANCH  16  32
ATOM     32  CB  GLU A   7      -1.672   2.583  11.731  0.00  0.00    +0.041 C 
BRANCH  32  33
ATOM     33  CG  GLU A   7      -2.116   3.096  13.108  0.00  0.00    +0.116 C 
BRANCH  33  34
ATOM     34  CD  GLU A   7      -2.067   1.999  14.152  0.00  0.00    +0.365 C 
ATOM     35  OE2 GLU A   7      -1.509   2.256  15.241  0.00  0.00    -0.246 OA
ATOM     36  OE1 GLU A   7      -2.549   0.872  13.886  0.00  0.00    -0.246 OA
ENDBRANCH  33  34
ENDBRANCH  32  33
ENDBRANCH  16  32
ENDBRANCH  13  16
ENDBRANCH  10  12
ENDBRANCH   7  10
ENDBRANCH   5   6
BRANCH   5  37
ATOM     37  CB  GLU A   5      -8.341   1.821   8.369  0.00  0.00    +0.041 C 
BRANCH  37  38
ATOM     38  CG  GLU A   5      -8.693   2.247   6.925  0.00  0.00    +0.116 C 
BRANCH  38  39
ATOM     39  CD  GLU A   5      -8.660   3.761   6.696  0.00  0.00    +0.365 C 
ATOM     40  OE2 GLU A   5      -9.125   4.514   7.588  0.00  0.00    -0.246 OA
ATOM     41  OE1 GLU A   5      -8.171   4.194   5.617  0.00  0.00    -0.246 OA
ENDBRANCH  38  39
ENDBRANCH  37  38
ENDBRANCH   5  37
ENDBRANCH   2   5
BRANCH   1  42
ATOM     42  CA  ASN A   4      -5.287  -0.384  11.470  0.00  0.00    +0.158 C 
BRANCH  42  44
ATOM     43  C   SER A   3      -3.171  -1.590  11.266  0.00  0.00    +0.243 C 
ATOM     44  N   ASN A   4      -3.904  -0.644  11.859  0.00  0.00    -0.297 N 
ATOM     45  H   ASN A   4      -3.478  -0.077  12.619  0.00  0.00    +0.150 HD
ATOM     46  O   SER A   3      -3.525  -2.199  10.252  0.00  0.00    -0.273 OA
BRANCH  43  47
ATOM     47  CA  SER A   3      -1.840  -1.932  11.942  0.00  0.00    +0.178 C 
BRANCH  47  50
ATOM     48  C   THR A   2      -2.162  -4.347  11.924  0.00  0.00    +0.243 C 
ATOM     49  O   THR A   2      -3.304  -4.249  12.415  0.00  0.00    -0.273 OA
ATOM     50  N   SER A   3      -1.409  -3.291  11.608  0.00  0.00    -0.295 N 
ATOM     51  H   SER A   3      -0.503  -3.436  11.118  0.00  0.00    +0.150 HD
BRANCH  48  52
ATOM     52  CA  THR A   2      -1.544  -5.732  11.691  0.00  0.00    +0.176 C 
BRANCH  52  54
ATOM     53  C   ASP A   1       0.071  -5.848   9.871  0.00  0.00    +0.239 C 
ATOM     54  N   THR A   2      -0.168  -5.690  11.168  0.00  0.00    -0.295 N 
ATOM     55  H   THR A   2       0.626  -5.535  11.822  0.00  0.00    +0.150 HD
ATOM     56  O   ASP A   1      -0.837  -6.017   9.033  0.00  0.00    -0.274 OA
BRANCH  53  57
ATOM     57  CA  ASP A   1       1.525  -5.784   9.423  0.00  0.00    +0.156 C 
BRANCH  57  58
ATOM     58  N   ASP A   1       1.793  -6.894   8.496  0.00  0.00    -0.238 NA
ATOM     59  H   ASP A   1       1.372  -6.848   7.546  0.00  0.00    +0.142 HD
ENDBRANCH  57  58
BRANCH  57  60
ATOM     60  CB  ASP A   1       1.779  -4.472   8.683  0.00  0.00    +0.140 C 
BRANCH  60  61
ATOM     61  CG  ASP A   1       1.429  -3.246   9.517  0.00  0.00    +0.367 C 
ATOM     62  OD2 ASP A   1       1.459  -3.321  10.768  0.00  0.00    -0.246 OA
ATOM     63  OD1 ASP A   1       1.124  -2.204   8.909  0.00  0.00    -0.246 OA
ENDBRANCH  60  61
ENDBRANCH  57  60
ENDBRANCH  53  57
ENDBRANCH  52  54
BRANCH  52  64
ATOM     64  CB  THR A   2      -1.596  -6.444  13.054  0.00  0.00    +0.137 C 
ATOM     65  CG2 THR A   2      -1.140  -7.893  12.928  0.00  0.00    +0.034 C 
BRANCH  64  66
ATOM     66  OG1 THR A   2      -0.757  -5.730  13.964  0.00  0.00    -0.382 OA
ATOM     67  HG1 THR A   2      -0.778  -6.174  14.848  0.00  0.00    +0.210 HD
ENDBRANCH  64  66
ENDBRANCH  52  64
ENDBRANCH  48  52
ENDBRANCH  47  50
BRANCH  47  68
ATOM     68  CB  SER A   3      -0.758  -0.901  11.601  0.00  0.00    +0.166 C 
BRANCH  68  69
ATOM     69  OG  SER A   3      -0.642  -0.687  10.205  0.00  0.00    -0.380 OA
ATOM     70  H   SER A   3      -0.406  -1.539   9.760  0.00  0.00    +0.211 HD
ENDBRANCH  68  69
ENDBRANCH  47  68
ENDBRANCH  43  47
ENDBRANCH  42  44
BRANCH  42  71
ATOM     71  CB  ASN A   4      -6.135   0.074  12.675  0.00  0.00    +0.114 C 
BRANCH  71  72
ATOM     72  CG  ASN A   4      -5.746   1.442  13.203  0.00  0.00    +0.222 C 
ATOM     73  ND2 ASN A   4      -5.944   1.643  14.508  0.00  0.00    -0.329 N 
ATOM     74 HD21 ASN A   4      -6.326   0.878  15.100  0.00  0.00    +0.145 HD
ATOM     75 HD22 ASN A   4      -5.716   2.565  14.933  0.00  0.00    +0.145 HD
ATOM     76  OD1 ASN A   4      -5.297   2.311  12.455  0.00  0.00    -0.275 OA
ENDBRANCH  71  72
ENDBRANCH  42  71
ENDBRANCH   1  42
TORSDOF 35
REMARK  Name = ../refined-set-2016/3k00/3k00_pocket.pdb
REMARK  256 active torsions:
REMARK  status: ('A' for Active; 'I' for Inactive)
REMARK    1  A    between atoms: _1  and  _3
REMARK    2  A    between atoms: _3  and  _4
REMARK    3  A    between atoms: _3  and  _6
REMARK    4  A    between atoms: _6  and  _7
REMARK    5  A    between atoms: _10  and  _12
REMARK    6  A    between atoms: _12  and  _13
REMARK    7  A    between atoms: _12  and  _15
REMARK    8  A    between atoms: _15  and  _16
REMARK    9  A    between atoms: _19  and  _21
REMARK   10  A    between atoms: _21  and  _22
REMARK   11  A    between atoms: _21  and  _24
REMARK   12  A    between atoms: _24  and  _25
REMARK   13  A    between atoms: _27  and  _29
REMARK   14  A    between atoms: _29  and  _30
REMARK   15  A    between atoms: _29  and  _32
REMARK   16  A    between atoms: _32  and  _33
REMARK   17  A    between atoms: _38  and  _40
REMARK   18  A    between atoms: _40  and  _41
REMARK   19  A    between atoms: _40  and  _43
REMARK   20  A    between atoms: _43  and  _44
REMARK   21  A    between atoms: _44  and  _45
REMARK   22  A    between atoms: _48  and  _50
REMARK   23  A    between atoms: _50  and  _51
REMARK   24  A    between atoms: _54  and  _56
REMARK   25  A    between atoms: _56  and  _57
REMARK   26  A    between atoms: _56  and  _59
REMARK   27  A    between atoms: _59  and  _60
REMARK   28  A    between atoms: _60  and  _61
REMARK   29  A    between atoms: _64  and  _66
REMARK   30  A    between atoms: _66  and  _67
REMARK   31  A    between atoms: _66  and  _69
REMARK   32  A    between atoms: _69  and  _70
REMARK   33  A    between atoms: _70  and  _71
REMARK   34  A    between atoms: _71  and  _72
REMARK   35  A    between atoms: _72  and  _73
REMARK   36  A    between atoms: _77  and  _79
REMARK   37  A    between atoms: _79  and  _80
REMARK   38  A    between atoms: _79  and  _82
REMARK   39  A    between atoms: _82  and  _83
REMARK   40  A    between atoms: _88  and  _89
REMARK   41  A    between atoms: _91  and  _93
REMARK   42  A    between atoms: _93  and  _94
REMARK   43  A    between atoms: _93  and  _96
REMARK   44  A    between atoms: _96  and  _97
REMARK   45  A    between atoms: _102  and  _104
REMARK   46  A    between atoms: _104  and  _105
REMARK   47  A    between atoms: _104  and  _107
REMARK   48  A    between atoms: _111  and  _112
REMARK   49  A    between atoms: _117  and  _119
REMARK   50  A    between atoms: _119  and  _120
REMARK   51  A    between atoms: _119  and  _122
REMARK   52  A    between atoms: _122  and  _123
REMARK   53  A    between atoms: _129  and  _131
REMARK   54  A    between atoms: _131  and  _132
REMARK   55  A    between atoms: _134  and  _136
REMARK   56  A    between atoms: _136  and  _137
REMARK   57  A    between atoms: _136  and  _139
REMARK   58  A    between atoms: _139  and  _140
REMARK   59  A    between atoms: _140  and  _141
REMARK   60  A    between atoms: _144  and  _146
REMARK   61  A    between atoms: _146  and  _147
REMARK   62  A    between atoms: _150  and  _152
REMARK   63  A    between atoms: _152  and  _153
REMARK   64  A    between atoms: _152  and  _155
REMARK   65  A    between atoms: _155  and  _156
REMARK   66  A    between atoms: _161  and  _163
REMARK   67  A    between atoms: _163  and  _164
REMARK   68  A    between atoms: _167  and  _169
REMARK   69  A    between atoms: _169  and  _170
REMARK   70  A    between atoms: _169  and  _172
REMARK   71  A    between atoms: _172  and  _173
REMARK   72  A    between atoms: _173  and  _174
REMARK   73  A    between atoms: _174  and  _175
REMARK   74  A    between atoms: _175  and  _176
REMARK   75  A    between atoms: _180  and  _182
REMARK   76  A    between atoms: _182  and  _183
REMARK   77  A    between atoms: _182  and  _185
REMARK   78  A    between atoms: _185  and  _186
REMARK   79  A    between atoms: _186  and  _187
REMARK   80  A    between atoms: _187  and  _188
REMARK   81  A    between atoms: _188  and  _189
REMARK   82  A    between atoms: _193  and  _195
REMARK   83  A    between atoms: _195  and  _196
REMARK   84  A    between atoms: _195  and  _198
REMARK   85  A    between atoms: _198  and  _199
REMARK   86  A    between atoms: _199  and  _200
REMARK   87  A    between atoms: _200  and  _201
REMARK   88  A    between atoms: _210  and  _212
REMARK   89  A    between atoms: _212  and  _213
REMARK   90  A    between atoms: _212  and  _215
REMARK   91  A    between atoms: _215  and  _216
REMARK   92  A    between atoms: _216  and  _217
REMARK   93  A    between atoms: _220  and  _222
REMARK   94  A    between atoms: _222  and  _223
REMARK   95  A    between atoms: _222  and  _225
REMARK   96  A    between atoms: _228  and  _230
REMARK   97  A    between atoms: _230  and  _231
REMARK   98  A    between atoms: _234  and  _236
REMARK   99  A    between atoms: _236  and  _237
REMARK  100  A    between atoms: _236  and  _239
REMARK  101  A    between atoms: _239  and  _240
REMARK  102  A    between atoms: _250  and  _252
REMARK  103  A    between atoms: _252  and  _253
REMARK  104  A    between atoms: _252  and  _255
REMARK  105  A    between atoms: _258  and  _260
REMARK  106  A    between atoms: _260  and  _261
REMARK  107  A    between atoms: _260  and  _263
REMARK  108  A    between atoms: _263  and  _264
REMARK  109  A    between atoms: _267  and  _269
REMARK  110  A    between atoms: _269  and  _270
REMARK  111  A    between atoms: _269  and  _272
REMARK  112  A    between atoms: _272  and  _273
REMARK  113  A    between atoms: _279  and  _281
REMARK  114  A    between atoms: _281  and  _282
REMARK  115  A    between atoms: _281  and  _284
REMARK  116  A    between atoms: _284  and  _285
REMARK  117  A    between atoms: _285  and  _286
REMARK  118  A    between atoms: _291  and  _293
REMARK  119  A    between atoms: _293  and  _294
REMARK  120  A    between atoms: _293  and  _296
REMARK  121  A    between atoms: _299  and  _301
REMARK  122  A    between atoms: _301  and  _302
REMARK  123  A    between atoms: _301  and  _304
REMARK  124  A    between atoms: _304  and  _305
REMARK  125  A    between atoms: _308  and  _310
REMARK  126  A    between atoms: _310  and  _311
REMARK  127  A    between atoms: _310  and  _313
REMARK  128  A    between atoms: _313  and  _314
REMARK  129  A    between atoms: _317  and  _319
REMARK  130  A    between atoms: _319  and  _320
REMARK  131  A    between atoms: _319  and  _322
REMARK  132  A    between atoms: _322  and  _323
REMARK  133  A    between atoms: _326  and  _328
REMARK  134  A    between atoms: _328  and  _329
REMARK  135  A    between atoms: _328  and  _331
REMARK  136  A    between atoms: _331  and  _332
REMARK  137  A    between atoms: _335  and  _337
REMARK  138  A    between atoms: _337  and  _338
REMARK  139  A    between atoms: _337  and  _340
REMARK  140  A    between atoms: _340  and  _341
REMARK  141  A    between atoms: _341  and  _342
REMARK  142  A    between atoms: _342  and  _343
REMARK  143  A    between atoms: _352  and  _354
REMARK  144  A    between atoms: _354  and  _355
REMARK  145  A    between atoms: _354  and  _357
REMARK  146  A    between atoms: _357  and  _358
REMARK  147  A    between atoms: _361  and  _363
REMARK  148  A    between atoms: _363  and  _364
REMARK  149  A    between atoms: _363  and  _366
REMARK  150  A    between atoms: _366  and  _367
REMARK  151  A    between atoms: _371  and  _372
REMARK  152  A    between atoms: _377  and  _379
REMARK  153  A    between atoms: _379  and  _380
REMARK  154  A    between atoms: _379  and  _382
REMARK  155  A    between atoms: _382  and  _383
REMARK  156  A    between atoms: _388  and  _389
REMARK  157  A    between atoms: _391  and  _393
REMARK  158  A    between atoms: _393  and  _394
REMARK  159  A    between atoms: _393  and  _396
REMARK  160  A    between atoms: _396  and  _397
REMARK  161  A    between atoms: _407  and  _409
REMARK  162  A    between atoms: _409  and  _410
REMARK  163  A    between atoms: _409  and  _412
REMARK  164  A    between atoms: _412  and  _413
REMARK  165  A    between atoms: _419  and  _421
REMARK  166  A    between atoms: _421  and  _422
REMARK  167  A    between atoms: _421  and  _424
REMARK  168  A    between atoms: _424  and  _425
REMARK  169  A    between atoms: _428  and  _430
REMARK  170  A    between atoms: _430  and  _431
REMARK  171  A    between atoms: _430  and  _433
REMARK  172  A    between atoms: _433  and  _434
REMARK  173  A    between atoms: _444  and  _446
REMARK  174  A    between atoms: _446  and  _447
REMARK  175  A    between atoms: _446  and  _449
REMARK  176  A    between atoms: _449  and  _450
REMARK  177  A    between atoms: _450  and  _451
REMARK  178  A    between atoms: _453  and  _455
REMARK  179  A    between atoms: _455  and  _456
REMARK  180  A    between atoms: _455  and  _458
REMARK  181  A    between atoms: _458  and  _459
REMARK  182  A    between atoms: _464  and  _466
REMARK  183  A    between atoms: _466  and  _467
REMARK  184  A    between atoms: _470  and  _471
REMARK  185  A    between atoms: _476  and  _478
REMARK  186  A    between atoms: _478  and  _479
REMARK  187  A    between atoms: _478  and  _481
REMARK  188  A    between atoms: _481  and  _482
REMARK  189  A    between atoms: _492  and  _494
REMARK  190  A    between atoms: _494  and  _495
REMARK  191  A    between atoms: _499  and  _500
REMARK  192  A    between atoms: _505  and  _507
REMARK  193  A    between atoms: _507  and  _508
REMARK  194  A    between atoms: _507  and  _510
REMARK  195  A    between atoms: _510  and  _511
REMARK  196  A    between atoms: _511  and  _512
REMARK  197  A    between atoms: _517  and  _519
REMARK  198  A    between atoms: _519  and  _520
REMARK  199  A    between atoms: _522  and  _524
REMARK  200  A    between atoms: _524  and  _525
REMARK  201  A    between atoms: _527  and  _529
REMARK  202  A    between atoms: _529  and  _530
REMARK  203  A    between atoms: _529  and  _532
REMARK  204  A    between atoms: _532  and  _533
REMARK  205  A    between atoms: _543  and  _545
REMARK  206  A    between atoms: _545  and  _546
REMARK  207  A    between atoms: _545  and  _548
REMARK  208  A    between atoms: _548  and  _549
REMARK  209  A    between atoms: _552  and  _554
REMARK  210  A    between atoms: _554  and  _555
REMARK  211  A    between atoms: _554  and  _557
REMARK  212  A    between atoms: _557  and  _558
REMARK  213  A    between atoms: _561  and  _563
REMARK  214  A    between atoms: _563  and  _564
REMARK  215  A    between atoms: _563  and  _566
REMARK  216  A    between atoms: _566  and  _567
REMARK  217  A    between atoms: _567  and  _568
REMARK  218  A    between atoms: _568  and  _569
REMARK  219  A    between atoms: _578  and  _580
REMARK  220  A    between atoms: _580  and  _581
REMARK  221  A    between atoms: _580  and  _583
REMARK  222  A    between atoms: _583  and  _584
REMARK  223  A    between atoms: _594  and  _596
REMARK  224  A    between atoms: _596  and  _597
REMARK  225  A    between atoms: _600  and  _602
REMARK  226  A    between atoms: _602  and  _603
REMARK  227  A    between atoms: _602  and  _605
REMARK  228  A    between atoms: _605  and  _606
REMARK  229  A    between atoms: _606  and  _607
REMARK  230  A    between atoms: _610  and  _612
REMARK  231  A    between atoms: _612  and  _613
REMARK  232  A    between atoms: _615  and  _617
REMARK  233  A    between atoms: _617  and  _618
REMARK  234  A    between atoms: _617  and  _620
REMARK  235  A    between atoms: _620  and  _621
REMARK  236  A    between atoms: _626  and  _628
REMARK  237  A    between atoms: _628  and  _629
REMARK  238  A    between atoms: _632  and  _634
REMARK  239  A    between atoms: _634  and  _635
REMARK  240  A    between atoms: _634  and  _637
REMARK  241  A    between atoms: _637  and  _638
REMARK  242  A    between atoms: _641  and  _643
REMARK  243  A    between atoms: _643  and  _644
REMARK  244  A    between atoms: _643  and  _646
REMARK  245  A    between atoms: _646  and  _647
REMARK  246  A    between atoms: _653  and  _655
REMARK  247  A    between atoms: _655  and  _656
REMARK  248  A    between atoms: _655  and  _658
REMARK  249  A    between atoms: _658  and  _659
REMARK  250  A    between atoms: _659  and  _660
REMARK  251  A    between atoms: _663  and  _665
REMARK  252  A    between atoms: _665  and  _666
REMARK  253  A    between atoms: _665  and  _668
REMARK  254  A    between atoms: _668  and  _669
REMARK  255  A    between atoms: _669  and  _670
REMARK  256  A    between atoms: _670  and  _671
REMARK                            x       y       z     vdW  Elec       q    Type
REMARK                         _______ _______ _______ _____ _____    ______ ____
ROOT
ATOM      1  CG  TYR A   1       3.252   0.709  10.351  0.00  0.00    -0.020 A 
ATOM      2  CD2 TYR A   1       2.255   0.870  11.318  0.00  0.00    -0.001 A 
ATOM      3  CE2 TYR A   1       2.590   1.023  12.665  0.00  0.00    +0.036 A 
ATOM      4  CZ  TYR A   1       3.936   1.001  13.044  0.00  0.00    +0.134 A 
ATOM      5  CE1 TYR A   1       4.944   0.848  12.095  0.00  0.00    +0.036 A 
ATOM      6  CD1 TYR A   1       4.595   0.706  10.765  0.00  0.00    -0.001 A 
ENDROOT
BRANCH   4   7
ATOM      7  OH  TYR A   1       4.291   1.144  14.364  0.00  0.00    -0.506 OA
ATOM      8  HH  TYR A   1       5.277   1.104  14.446  0.00  0.00    +0.292 HD
ENDBRANCH   4   7
BRANCH   1   9
ATOM      9  CB  TYR A   1       2.898   0.520   8.882  0.00  0.00    +0.051 C 
BRANCH   9  10
ATOM     10  CA  TYR A   1       3.598   1.529   7.975  0.00  0.00    +0.137 C 
BRANCH  10  11
ATOM     11  N   TYR A   1       2.810   2.735   7.810  0.00  0.00    -0.239 NA
ATOM     12  H   TYR A   1       1.807   2.733   8.085  0.00  0.00    +0.142 HD
ENDBRANCH  10  11
BRANCH  10  13
ATOM     13  C   TYR A   1       4.042   0.924   6.655  0.00  0.00    +0.224 C 
ATOM     14  O   TYR A   1       5.182   0.484   6.542  0.00  0.00    -0.287 OA
ENDBRANCH  10  13
ENDBRANCH   9  10
ENDBRANCH   1   9
TORSDOF 5
REMARK  Name = ../refined-set-2016/3k00/3k00_pocket.pdb
REMARK  256 active torsions:
REMARK  status: ('A' for Active; 'I' for Inactive)
REMARK    1  A    between atoms: _1  and  _3
REMARK    2  A    between atoms: _3  and  _4
REMARK    3  A    between atoms: _3  and  _6
REMARK    4  A    between atoms: _6  and  _7
REMARK    5  A    between atoms: _10  and  _12
REMARK    6  A    between atoms: _12  and  _13
REMARK    7  A    between atoms: _12  and  _15
REMARK    8  A    between atoms: _15  and  _16
REMARK    9  A    between atoms: _19  and  _21
REMARK   10  A    between atoms: _21  and  _22
REMARK   11  A    between atoms: _21  and  _24
REMARK   12  A    between atoms: _24  and  _25
REMARK   13  A    between atoms: _27  and  _29
REMARK   14  A    between atoms: _29  and  _30
REMARK   15  A    between atoms: _29  and  _32
REMARK   16  A    between atoms: _32  and  _33
REMARK   17  A    between atoms: _38  and  _40
REMARK   18  A    between atoms: _40  and  _41
REMARK   19  A    between atoms: _40  and  _43
REMARK   20  A    between atoms: _43  and  _44
REMARK   21  A    between atoms: _44  and  _45
REMARK   22  A    between atoms: _48  and  _50
REMARK   23  A    between atoms: _50  and  _51
REMARK   24  A    between atoms: _54  and  _56
REMARK   25  A    between atoms: _56  and  _57
REMARK   26  A    between atoms: _56  and  _59
REMARK   27  A    between atoms: _59  and  _60
REMARK   28  A    between atoms: _60  and  _61
REMARK   29  A    between atoms: _64  and  _66
REMARK   30  A    between atoms: _66  and  _67
REMARK   31  A    between atoms: _66  and  _69
REMARK   32  A    between atoms: _69  and  _70
REMARK   33  A    between atoms: _70  and  _71
REMARK   34  A    between atoms: _71  and  _72
REMARK   35  A    between atoms: _72  and  _73
REMARK   36  A    between atoms: _77  and  _79
REMARK   37  A    between atoms: _79  and  _80
REMARK   38  A    between atoms: _79  and  _82
REMARK   39  A    between atoms: _82  and  _83
REMARK   40  A    between atoms: _88  and  _89
REMARK   41  A    between atoms: _91  and  _93
REMARK   42  A    between atoms: _93  and  _94
REMARK   43  A    between atoms: _93  and  _96
REMARK   44  A    between atoms: _96  and  _97
REMARK   45  A    between atoms: _102  and  _104
REMARK   46  A    between atoms: _104  and  _105
REMARK   47  A    between atoms: _104  and  _107
REMARK   48  A    between atoms: _111  and  _112
REMARK   49  A    between atoms: _117  and  _119
REMARK   50  A    between atoms: _119  and  _120
REMARK   51  A    between atoms: _119  and  _122
REMARK   52  A    between atoms: _122  and  _123
REMARK   53  A    between atoms: _129  and  _131
REMARK   54  A    between atoms: _131  and  _132
REMARK   55  A    between atoms: _134  and  _136
REMARK   56  A    between atoms: _136  and  _137
REMARK   57  A    between atoms: _136  and  _139
REMARK   58  A    between atoms: _139  and  _140
REMARK   59  A    between atoms: _140  and  _141
REMARK   60  A    between atoms: _144  and  _146
REMARK   61  A    between atoms: _146  and  _147
REMARK   62  A    between atoms: _150  and  _152
REMARK   63  A    between atoms: _152  and  _153
REMARK   64  A    between atoms: _152  and  _155
REMARK   65  A    between atoms: _155  and  _156
REMARK   66  A    between atoms: _161  and  _163
REMARK   67  A    between atoms: _163  and  _164
REMARK   68  A    between atoms: _167  and  _169
REMARK   69  A    between atoms: _169  and  _170
REMARK   70  A    between atoms: _169  and  _172
REMARK   71  A    between atoms: _172  and  _173
REMARK   72  A    between atoms: _173  and  _174
REMARK   73  A    between atoms: _174  and  _175
REMARK   74  A    between atoms: _175  and  _176
REMARK   75  A    between atoms: _180  and  _182
REMARK   76  A    between atoms: _182  and  _183
REMARK   77  A    between atoms: _182  and  _185
REMARK   78  A    between atoms: _185  and  _186
REMARK   79  A    between atoms: _186  and  _187
REMARK   80  A    between atoms: _187  and  _188
REMARK   81  A    between atoms: _188  and  _189
REMARK   82  A    between atoms: _193  and  _195
REMARK   83  A    between atoms: _195  and  _196
REMARK   84  A    between atoms: _195  and  _198
REMARK   85  A    between atoms: _198  and  _199
REMARK   86  A    between atoms: _199  and  _200
REMARK   87  A    between atoms: _200  and  _201
REMARK   88  A    between atoms: _210  and  _212
REMARK   89  A    between atoms: _212  and  _213
REMARK   90  A    between atoms: _212  and  _215
REMARK   91  A    between atoms: _215  and  _216
REMARK   92  A    between atoms: _216  and  _217
REMARK   93  A    between atoms: _220  and  _222
REMARK   94  A    between atoms: _222  and  _223
REMARK   95  A    between atoms: _222  and  _225
REMARK   96  A    between atoms: _228  and  _230
REMARK   97  A    between atoms: _230  and  _231
REMARK   98  A    between atoms: _234  and  _236
REMARK   99  A    between atoms: _236  and  _237
REMARK  100  A    between atoms: _236  and  _239
REMARK  101  A    between atoms: _239  and  _240
REMARK  102  A    between atoms: _250  and  _252
REMARK  103  A    between atoms: _252  and  _253
REMARK  104  A    between atoms: _252  and  _255
REMARK  105  A    between atoms: _258  and  _260
REMARK  106  A    between atoms: _260  and  _261
REMARK  107  A    between atoms: _260  and  _263
REMARK  108  A    between atoms: _263  and  _264
REMARK  109  A    between atoms: _267  and  _269
REMARK  110  A    between atoms: _269  and  _270
REMARK  111  A    between atoms: _269  and  _272
REMARK  112  A    between atoms: _272  and  _273
REMARK  113  A    between atoms: _279  and  _281
REMARK  114  A    between atoms: _281  and  _282
REMARK  115  A    between atoms: _281  and  _284
REMARK  116  A    between atoms: _284  and  _285
REMARK  117  A    between atoms: _285  and  _286
REMARK  118  A    between atoms: _291  and  _293
REMARK  119  A    between atoms: _293  and  _294
REMARK  120  A    between atoms: _293  and  _296
REMARK  121  A    between atoms: _299  and  _301
REMARK  122  A    between atoms: _301  and  _302
REMARK  123  A    between atoms: _301  and  _304
REMARK  124  A    between atoms: _304  and  _305
REMARK  125  A    between atoms: _308  and  _310
REMARK  126  A    between atoms: _310  and  _311
REMARK  127  A    between atoms: _310  and  _313
REMARK  128  A    between atoms: _313  and  _314
REMARK  129  A    between atoms: _317  and  _319
REMARK  130  A    between atoms: _319  and  _320
REMARK  131  A    between atoms: _319  and  _322
REMARK  132  A    between atoms: _322  and  _323
REMARK  133  A    between atoms: _326  and  _328
REMARK  134  A    between atoms: _328  and  _329
REMARK  135  A    between atoms: _328  and  _331
REMARK  136  A    between atoms: _331  and  _332
REMARK  137  A    between atoms: _335  and  _337
REMARK  138  A    between atoms: _337  and  _338
REMARK  139  A    between atoms: _337  and  _340
REMARK  140  A    between atoms: _340  and  _341
REMARK  141  A    between atoms: _341  and  _342
REMARK  142  A    between atoms: _342  and  _343
REMARK  143  A    between atoms: _352  and  _354
REMARK  144  A    between atoms: _354  and  _355
REMARK  145  A    between atoms: _354  and  _357
REMARK  146  A    between atoms: _357  and  _358
REMARK  147  A    between atoms: _361  and  _363
REMARK  148  A    between atoms: _363  and  _364
REMARK  149  A    between atoms: _363  and  _366
REMARK  150  A    between atoms: _366  and  _367
REMARK  151  A    between atoms: _371  and  _372
REMARK  152  A    between atoms: _377  and  _379
REMARK  153  A    between atoms: _379  and  _380
REMARK  154  A    between atoms: _379  and  _382
REMARK  155  A    between atoms: _382  and  _383
REMARK  156  A    between atoms: _388  and  _389
REMARK  157  A    between atoms: _391  and  _393
REMARK  158  A    between atoms: _393  and  _394
REMARK  159  A    between atoms: _393  and  _396
REMARK  160  A    between atoms: _396  and  _397
REMARK  161  A    between atoms: _407  and  _409
REMARK  162  A    between atoms: _409  and  _410
REMARK  163  A    between atoms: _409  and  _412
REMARK  164  A    between atoms: _412  and  _413
REMARK  165  A    between atoms: _419  and  _421
REMARK  166  A    between atoms: _421  and  _422
REMARK  167  A    between atoms: _421  and  _424
REMARK  168  A    between atoms: _424  and  _425
REMARK  169  A    between atoms: _428  and  _430
REMARK  170  A    between atoms: _430  and  _431
REMARK  171  A    between atoms: _430  and  _433
REMARK  172  A    between atoms: _433  and  _434
REMARK  173  A    between atoms: _444  and  _446
REMARK  174  A    between atoms: _446  and  _447
REMARK  175  A    between atoms: _446  and  _449
REMARK  176  A    between atoms: _449  and  _450
REMARK  177  A    between atoms: _450  and  _451
REMARK  178  A    between atoms: _453  and  _455
REMARK  179  A    between atoms: _455  and  _456
REMARK  180  A    between atoms: _455  and  _458
REMARK  181  A    between atoms: _458  and  _459
REMARK  182  A    between atoms: _464  and  _466
REMARK  183  A    between atoms: _466  and  _467
REMARK  184  A    between atoms: _470  and  _471
REMARK  185  A    between atoms: _476  and  _478
REMARK  186  A    between atoms: _478  and  _479
REMARK  187  A    between atoms: _478  and  _481
REMARK  188  A    between atoms: _481  and  _482
REMARK  189  A    between atoms: _492  and  _494
REMARK  190  A    between atoms: _494  and  _495
REMARK  191  A    between atoms: _499  and  _500
REMARK  192  A    between atoms: _505  and  _507
REMARK  193  A    between atoms: _507  and  _508
REMARK  194  A    between atoms: _507  and  _510
REMARK  195  A    between atoms: _510  and  _511
REMARK  196  A    between atoms: _511  and  _512
REMARK  197  A    between atoms: _517  and  _519
REMARK  198  A    between atoms: _519  and  _520
REMARK  199  A    between atoms: _522  and  _524
REMARK  200  A    between atoms: _524  and  _525
REMARK  201  A    between atoms: _527  and  _529
REMARK  202  A    between atoms: _529  and  _530
REMARK  203  A    between atoms: _529  and  _532
REMARK  204  A    between atoms: _532  and  _533
REMARK  205  A    between atoms: _543  and  _545
REMARK  206  A    between atoms: _545  and  _546
REMARK  207  A    between atoms: _545  and  _548
REMARK  208  A    between atoms: _548  and  _549
REMARK  209  A    between atoms: _552  and  _554
REMARK  210  A    between atoms: _554  and  _555
REMARK  211  A    between atoms: _554  and  _557
REMARK  212  A    between atoms: _557  and  _558
REMARK  213  A    between atoms: _561  and  _563
REMARK  214  A    between atoms: _563  and  _564
REMARK  215  A    between atoms: _563  and  _566
REMARK  216  A    between atoms: _566  and  _567
REMARK  217  A    between atoms: _567  and  _568
REMARK  218  A    between atoms: _568  and  _569
REMARK  219  A    between atoms: _578  and  _580
REMARK  220  A    between atoms: _580  and  _581
REMARK  221  A    between atoms: _580  and  _583
REMARK  222  A    between atoms: _583  and  _584
REMARK  223  A    between atoms: _594  and  _596
REMARK  224  A    between atoms: _596  and  _597
REMARK  225  A    between atoms: _600  and  _602
REMARK  226  A    between atoms: _602  and  _603
REMARK  227  A    between atoms: _602  and  _605
REMARK  228  A    between atoms: _605  and  _606
REMARK  229  A    between atoms: _606  and  _607
REMARK  230  A    between atoms: _610  and  _612
REMARK  231  A    between atoms: _612  and  _613
REMARK  232  A    between atoms: _615  and  _617
REMARK  233  A    between atoms: _617  and  _618
REMARK  234  A    between atoms: _617  and  _620
REMARK  235  A    between atoms: _620  and  _621
REMARK  236  A    between atoms: _626  and  _628
REMARK  237  A    between atoms: _628  and  _629
REMARK  238  A    between atoms: _632  and  _634
REMARK  239  A    between atoms: _634  and  _635
REMARK  240  A    between atoms: _634  and  _637
REMARK  241  A    between atoms: _637  and  _638
REMARK  242  A    between atoms: _641  and  _643
REMARK  243  A    between atoms: _643  and  _644
REMARK  244  A    between atoms: _643  and  _646
REMARK  245  A    between atoms: _646  and  _647
REMARK  246  A    between atoms: _653  and  _655
REMARK  247  A    between atoms: _655  and  _656
REMARK  248  A    between atoms: _655  and  _658
REMARK  249  A    between atoms: _658  and  _659
REMARK  250  A    between atoms: _659  and  _660
REMARK  251  A    between atoms: _663  and  _665
REMARK  252  A    between atoms: _665  and  _666
REMARK  253  A    between atoms: _665  and  _668
REMARK  254  A    between atoms: _668  and  _669
REMARK  255  A    between atoms: _669  and  _670
REMARK  256  A    between atoms: _670  and  _671
REMARK                            x       y       z     vdW  Elec       q    Type
REMARK                         _______ _______ _______ _____ _____    ______ ____
ROOT
ATOM      1  C   GLY A   5      -8.020 -11.780  14.221  0.00  0.00    +0.243 C 
ATOM      2  O   GLY A   5      -8.195 -12.868  14.817  0.00  0.00    -0.273 OA
ATOM      3  N   GLU A   6      -7.548 -11.684  12.981  0.00  0.00    -0.297 N 
ATOM      4  H   GLU A   6      -7.390 -10.735  12.587  0.00  0.00    +0.150 HD
ENDROOT
BRANCH   3   5
ATOM      5  CA  GLU A   6      -7.240 -12.840  12.143  0.00  0.00    +0.149 C 
BRANCH   5   6
ATOM      6  C   GLU A   6      -5.765 -13.218  12.194  0.00  0.00    +0.241 C 
ATOM      7  N   ALA A   7      -4.913 -12.278  12.616  0.00  0.00    -0.297 N 
ATOM      8  H   ALA A   7      -5.284 -11.447  13.120  0.00  0.00    +0.150 HD
ATOM      9  O   GLU A   6      -5.405 -14.347  11.842  0.00  0.00    -0.273 OA
BRANCH   7  10
ATOM     10  CA  ALA A   7      -3.464 -12.388  12.386  0.00  0.00    +0.149 C 
ATOM     11  CB  ALA A   7      -2.768 -11.049  12.679  0.00  0.00    +0.031 C 
BRANCH  10  12
ATOM     12  C   ALA A   7      -2.759 -13.529  13.126  0.00  0.00    +0.241 C 
ATOM     13  N   ASN A   8      -3.127 -13.741  14.392  0.00  0.00    -0.297 N 
ATOM     14  H   ASN A   8      -3.847 -13.128  14.824  0.00  0.00    +0.150 HD
ATOM     15  O   ALA A   7      -1.894 -14.203  12.552  0.00  0.00    -0.273 OA
BRANCH  13  16
ATOM     16  CA  ASN A   8      -2.535 -14.821  15.183  0.00  0.00    +0.158 C 
BRANCH  16  17
ATOM     17  C   ASN A   8      -2.800 -16.183  14.529  0.00  0.00    +0.241 C 
ATOM     18  O   ASN A   8      -1.871 -16.971  14.300  0.00  0.00    -0.273 OA
ATOM     19  N   ALA A   9      -4.074 -16.439  14.225  0.00  0.00    -0.297 N 
ATOM     20  H   ALA A   9      -4.797 -15.737  14.483  0.00  0.00    +0.150 HD
BRANCH  19  21
ATOM     21  CA  ALA A   9      -4.501 -17.666  13.543  0.00  0.00    +0.149 C 
ATOM     22  CB  ALA A   9      -6.015 -17.705  13.468  0.00  0.00    +0.031 C 
BRANCH  21  23
ATOM     23  C   ALA A   9      -3.891 -17.821  12.150  0.00  0.00    +0.241 C 
ATOM     24  O   ALA A   9      -3.463 -18.923  11.753  0.00  0.00    -0.273 OA
ATOM     25  N   LYS A  10      -3.846 -16.715  11.403  0.00  0.00    -0.298 N 
ATOM     26  H   LYS A  10      -4.204 -15.821  11.796  0.00  0.00    +0.150 HD
BRANCH  25  27
ATOM     27  CA  LYS A  10      -3.307 -16.733  10.050  0.00  0.00    +0.137 C 
BRANCH  27  28
ATOM     28  C   LYS A  10      -1.811 -17.091  10.060  0.00  0.00    +0.227 C 
ATOM     29  O   LYS A  10      -1.334 -17.870   9.209  0.00  0.00    -0.286 OA
ENDBRANCH  27  28
BRANCH  27  30
ATOM     30  CB  LYS A  10      -3.546 -15.383   9.348  0.00  0.00    +0.028 C 
BRANCH  30  31
ATOM     31  CG  LYS A  10      -3.287 -15.431   7.848  0.00  0.00    -0.000 C 
BRANCH  31  32
ATOM     32  CD  LYS A  10      -3.461 -14.062   7.190  0.00  0.00    -0.024 C 
BRANCH  32  33
ATOM     33  CE  LYS A  10      -3.022 -14.084   5.719  0.00  0.00    -0.086 C 
BRANCH  33  34
ATOM     34  NZ  LYS A  10      -3.900 -14.929   4.840  0.00  0.00    +0.380 N 
ATOM     35  HZ1 LYS A  10      -3.889 -15.911   5.182  0.00  0.00    -0.089 HD
ATOM     36  HZ2 LYS A  10      -4.873 -14.562   4.868  0.00  0.00    -0.089 HD
ATOM     37  HZ3 LYS A  10      -3.544 -14.897   3.863  0.00  0.00    -0.089 HD
ENDBRANCH  33  34
ENDBRANCH  32  33
ENDBRANCH  31  32
ENDBRANCH  30  31
ENDBRANCH  27  30
ENDBRANCH  25  27
ENDBRANCH  21  23
ENDBRANCH  19  21
ENDBRANCH  16  17
BRANCH  16  38
ATOM     38  CB  ASN A   8      -3.052 -14.786  16.628  0.00  0.00    +0.114 C 
BRANCH  38  39
ATOM     39  CG  ASN A   8      -2.345 -15.780  17.531  0.00  0.00    +0.222 C 
ATOM     40  ND2 ASN A   8      -1.575 -15.265  18.494  0.00  0.00    -0.329 N 
ATOM     41 HD21 ASN A   8      -1.087 -15.895  19.162  0.00  0.00    +0.145 HD
ATOM     42 HD22 ASN A   8      -1.463 -14.234  18.575  0.00  0.00    +0.145 HD
ATOM     43  OD1 ASN A   8      -2.511 -16.999  17.391  0.00  0.00    -0.275 OA
ENDBRANCH  38  39
ENDBRANCH  16  38
ENDBRANCH  13  16
ENDBRANCH  10  12
ENDBRANCH   7  10
ENDBRANCH   5   6
BRANCH   5  44
ATOM     44  CB  GLU A   6      -7.602 -12.543  10.683  0.00  0.00    +0.041 C 
BRANCH  44  45
ATOM     45  CG  GLU A   6      -9.085 -12.335  10.411  0.00  0.00    +0.116 C 
BRANCH  45  46
ATOM     46  CD  GLU A   6      -9.369 -11.911   8.967  0.00  0.00    +0.365 C 
ATOM     47  OE2 GLU A   6     -10.491 -11.425   8.715  0.00  0.00    -0.246 OA
ATOM     48  OE1 GLU A   6      -8.477 -12.051   8.098  0.00  0.00    -0.246 OA
ENDBRANCH  45  46
ENDBRANCH  44  45
ENDBRANCH   5  44
ENDBRANCH   3   5
BRANCH   1  49
ATOM     49  CA  GLY A   5      -8.357 -10.462  14.896  0.00  0.00    +0.176 C 
BRANCH  49  52
ATOM     50  C   PHE A   4      -6.329  -9.144  14.453  0.00  0.00    +0.241 C 
ATOM     51  O   PHE A   4      -5.592 -10.005  14.932  0.00  0.00    -0.273 OA
ATOM     52  N   GLY A   5      -7.648  -9.279  14.361  0.00  0.00    -0.295 N 
ATOM     53  H   GLY A   5      -8.200  -8.529  13.898  0.00  0.00    +0.150 HD
BRANCH  50  54
ATOM     54  CA  PHE A   4      -5.739  -7.823  13.926  0.00  0.00    +0.153 C 
BRANCH  54  56
ATOM     55  C   PRO A   3      -6.179  -8.344  11.584  0.00  0.00    +0.241 C 
ATOM     56  N   PHE A   4      -6.174  -7.465  12.573  0.00  0.00    -0.297 N 
ATOM     57  H   PHE A   4      -6.488  -6.492  12.385  0.00  0.00    +0.150 HD
ATOM     58  O   PRO A   3      -5.831  -9.521  11.741  0.00  0.00    -0.273 OA
BRANCH  55  62
ATOM     59  C   VAL A   2      -4.434  -8.019   9.200  0.00  0.00    +0.244 C 
ATOM     60  O   VAL A   2      -3.900  -7.427  10.137  0.00  0.00    -0.273 OA
ATOM     61  N   PRO A   3      -5.764  -8.226   9.122  0.00  0.00    -0.272 N 
ATOM     62  CA  PRO A   3      -6.648  -7.827  10.215  0.00  0.00    +0.152 C 
ATOM     63  CB  PRO A   3      -7.995  -8.468   9.825  0.00  0.00    +0.031 C 
ATOM     64  CG  PRO A   3      -7.945  -8.508   8.341  0.00  0.00    +0.024 C 
ATOM     65  CD  PRO A   3      -6.518  -8.816   7.991  0.00  0.00    +0.094 C 
BRANCH  59  66
ATOM     66  CA  VAL A   2      -3.576  -8.510   8.042  0.00  0.00    +0.149 C 
BRANCH  66  68
ATOM     67  C   ASN A   1      -2.914  -6.917   6.308  0.00  0.00    +0.239 C 
ATOM     68  N   VAL A   2      -2.814  -7.370   7.552  0.00  0.00    -0.297 N 
ATOM     69  H   VAL A   2      -2.163  -6.890   8.205  0.00  0.00    +0.150 HD
ATOM     70  O   ASN A   1      -3.712  -7.369   5.486  0.00  0.00    -0.274 OA
BRANCH  67  71
ATOM     71  CA  ASN A   1      -1.952  -5.795   5.926  0.00  0.00    +0.154 C 
BRANCH  71  72
ATOM     72  N   ASN A   1      -1.187  -6.171   4.743  0.00  0.00    -0.238 NA
ATOM     73  H   ASN A   1      -1.597  -6.011   3.801  0.00  0.00    +0.142 HD
ENDBRANCH  71  72
BRANCH  71  74
ATOM     74  CB  ASN A   1      -2.709  -4.493   5.717  0.00  0.00    +0.111 C 
BRANCH  74  75
ATOM     75  CG  ASN A   1      -3.318  -3.982   7.005  0.00  0.00    +0.221 C 
ATOM     76  ND2 ASN A   1      -2.534  -3.233   7.772  0.00  0.00    -0.329 N 
ATOM     77 HD21 ASN A   1      -2.883  -2.882   8.687  0.00  0.00    +0.145 HD
ATOM     78 HD22 ASN A   1      -1.571  -2.997   7.458  0.00  0.00    +0.145 HD
ATOM     79  OD1 ASN A   1      -4.469  -4.293   7.327  0.00  0.00    -0.275 OA
ENDBRANCH  74  75
ENDBRANCH  71  74
ENDBRANCH  67  71
ENDBRANCH  66  68
BRANCH  66  80
ATOM     80  CB  VAL A   2      -2.646  -9.657   8.534  0.00  0.00    +0.027 C 
ATOM     81  CG2 VAL A   2      -3.486 -10.846   9.022  0.00  0.00    +0.002 C 
ATOM     82  CG1 VAL A   2      -1.689 -10.103   7.434  0.00  0.00    +0.002 C 
ENDBRANCH  66  80
ENDBRANCH  59  66
ENDBRANCH  55  62
ENDBRANCH  54  56
BRANCH  54  83
ATOM     83  CB  PHE A   4      -6.058  -6.683  14.908  0.00  0.00    +0.055 C 
BRANCH  83  84
ATOM     84  CG  PHE A   4      -5.885  -7.064  16.362  0.00  0.00    -0.020 A 
ATOM     85  CD2 PHE A   4      -6.993  -7.226  17.188  0.00  0.00    -0.004 A 
ATOM     86  CE2 PHE A   4      -6.843  -7.596  18.528  0.00  0.00    -0.000 A 
ATOM     87  CZ  PHE A   4      -5.577  -7.786  19.049  0.00  0.00    -0.000 A 
ATOM     88  CE1 PHE A   4      -4.458  -7.631  18.226  0.00  0.00    -0.000 A 
ATOM     89  CD1 PHE A   4      -4.622  -7.264  16.896  0.00  0.00    -0.004 A 
ENDBRANCH  83  84
ENDBRANCH  54  83
ENDBRANCH  50  54
ENDBRANCH  49  52
ENDBRANCH   1  49
TORSDOF 34
REMARK  Name = ../refined-set-2016/3k00/3k00_pocket.pdb
REMARK  256 active torsions:
REMARK  status: ('A' for Active; 'I' for Inactive)
REMARK    1  A    between atoms: _1  and  _3
REMARK    2  A    between atoms: _3  and  _4
REMARK    3  A    between atoms: _3  and  _6
REMARK    4  A    between atoms: _6  and  _7
REMARK    5  A    between atoms: _10  and  _12
REMARK    6  A    between atoms: _12  and  _13
REMARK    7  A    between atoms: _12  and  _15
REMARK    8  A    between atoms: _15  and  _16
REMARK    9  A    between atoms: _19  and  _21
REMARK   10  A    between atoms: _21  and  _22
REMARK   11  A    between atoms: _21  and  _24
REMARK   12  A    between atoms: _24  and  _25
REMARK   13  A    between atoms: _27  and  _29
REMARK   14  A    between atoms: _29  and  _30
REMARK   15  A    between atoms: _29  and  _32
REMARK   16  A    between atoms: _32  and  _33
REMARK   17  A    between atoms: _38  and  _40
REMARK   18  A    between atoms: _40  and  _41
REMARK   19  A    between atoms: _40  and  _43
REMARK   20  A    between atoms: _43  and  _44
REMARK   21  A    between atoms: _44  and  _45
REMARK   22  A    between atoms: _48  and  _50
REMARK   23  A    between atoms: _50  and  _51
REMARK   24  A    between atoms: _54  and  _56
REMARK   25  A    between atoms: _56  and  _57
REMARK   26  A    between atoms: _56  and  _59
REMARK   27  A    between atoms: _59  and  _60
REMARK   28  A    between atoms: _60  and  _61
REMARK   29  A    between atoms: _64  and  _66
REMARK   30  A    between atoms: _66  and  _67
REMARK   31  A    between atoms: _66  and  _69
REMARK   32  A    between atoms: _69  and  _70
REMARK   33  A    between atoms: _70  and  _71
REMARK   34  A    between atoms: _71  and  _72
REMARK   35  A    between atoms: _72  and  _73
REMARK   36  A    between atoms: _77  and  _79
REMARK   37  A    between atoms: _79  and  _80
REMARK   38  A    between atoms: _79  and  _82
REMARK   39  A    between atoms: _82  and  _83
REMARK   40  A    between atoms: _88  and  _89
REMARK   41  A    between atoms: _91  and  _93
REMARK   42  A    between atoms: _93  and  _94
REMARK   43  A    between atoms: _93  and  _96
REMARK   44  A    between atoms: _96  and  _97
REMARK   45  A    between atoms: _102  and  _104
REMARK   46  A    between atoms: _104  and  _105
REMARK   47  A    between atoms: _104  and  _107
REMARK   48  A    between atoms: _111  and  _112
REMARK   49  A    between atoms: _117  and  _119
REMARK   50  A    between atoms: _119  and  _120
REMARK   51  A    between atoms: _119  and  _122
REMARK   52  A    between atoms: _122  and  _123
REMARK   53  A    between atoms: _129  and  _131
REMARK   54  A    between atoms: _131  and  _132
REMARK   55  A    between atoms: _134  and  _136
REMARK   56  A    between atoms: _136  and  _137
REMARK   57  A    between atoms: _136  and  _139
REMARK   58  A    between atoms: _139  and  _140
REMARK   59  A    between atoms: _140  and  _141
REMARK   60  A    between atoms: _144  and  _146
REMARK   61  A    between atoms: _146  and  _147
REMARK   62  A    between atoms: _150  and  _152
REMARK   63  A    between atoms: _152  and  _153
REMARK   64  A    between atoms: _152  and  _155
REMARK   65  A    between atoms: _155  and  _156
REMARK   66  A    between atoms: _161  and  _163
REMARK   67  A    between atoms: _163  and  _164
REMARK   68  A    between atoms: _167  and  _169
REMARK   69  A    between atoms: _169  and  _170
REMARK   70  A    between atoms: _169  and  _172
REMARK   71  A    between atoms: _172  and  _173
REMARK   72  A    between atoms: _173  and  _174
REMARK   73  A    between atoms: _174  and  _175
REMARK   74  A    between atoms: _175  and  _176
REMARK   75  A    between atoms: _180  and  _182
REMARK   76  A    between atoms: _182  and  _183
REMARK   77  A    between atoms: _182  and  _185
REMARK   78  A    between atoms: _185  and  _186
REMARK   79  A    between atoms: _186  and  _187
REMARK   80  A    between atoms: _187  and  _188
REMARK   81  A    between atoms: _188  and  _189
REMARK   82  A    between atoms: _193  and  _195
REMARK   83  A    between atoms: _195  and  _196
REMARK   84  A    between atoms: _195  and  _198
REMARK   85  A    between atoms: _198  and  _199
REMARK   86  A    between atoms: _199  and  _200
REMARK   87  A    between atoms: _200  and  _201
REMARK   88  A    between atoms: _210  and  _212
REMARK   89  A    between atoms: _212  and  _213
REMARK   90  A    between atoms: _212  and  _215
REMARK   91  A    between atoms: _215  and  _216
REMARK   92  A    between atoms: _216  and  _217
REMARK   93  A    between atoms: _220  and  _222
REMARK   94  A    between atoms: _222  and  _223
REMARK   95  A    between atoms: _222  and  _225
REMARK   96  A    between atoms: _228  and  _230
REMARK   97  A    between atoms: _230  and  _231
REMARK   98  A    between atoms: _234  and  _236
REMARK   99  A    between atoms: _236  and  _237
REMARK  100  A    between atoms: _236  and  _239
REMARK  101  A    between atoms: _239  and  _240
REMARK  102  A    between atoms: _250  and  _252
REMARK  103  A    between atoms: _252  and  _253
REMARK  104  A    between atoms: _252  and  _255
REMARK  105  A    between atoms: _258  and  _260
REMARK  106  A    between atoms: _260  and  _261
REMARK  107  A    between atoms: _260  and  _263
REMARK  108  A    between atoms: _263  and  _264
REMARK  109  A    between atoms: _267  and  _269
REMARK  110  A    between atoms: _269  and  _270
REMARK  111  A    between atoms: _269  and  _272
REMARK  112  A    between atoms: _272  and  _273
REMARK  113  A    between atoms: _279  and  _281
REMARK  114  A    between atoms: _281  and  _282
REMARK  115  A    between atoms: _281  and  _284
REMARK  116  A    between atoms: _284  and  _285
REMARK  117  A    between atoms: _285  and  _286
REMARK  118  A    between atoms: _291  and  _293
REMARK  119  A    between atoms: _293  and  _294
REMARK  120  A    between atoms: _293  and  _296
REMARK  121  A    between atoms: _299  and  _301
REMARK  122  A    between atoms: _301  and  _302
REMARK  123  A    between atoms: _301  and  _304
REMARK  124  A    between atoms: _304  and  _305
REMARK  125  A    between atoms: _308  and  _310
REMARK  126  A    between atoms: _310  and  _311
REMARK  127  A    between atoms: _310  and  _313
REMARK  128  A    between atoms: _313  and  _314
REMARK  129  A    between atoms: _317  and  _319
REMARK  130  A    between atoms: _319  and  _320
REMARK  131  A    between atoms: _319  and  _322
REMARK  132  A    between atoms: _322  and  _323
REMARK  133  A    between atoms: _326  and  _328
REMARK  134  A    between atoms: _328  and  _329
REMARK  135  A    between atoms: _328  and  _331
REMARK  136  A    between atoms: _331  and  _332
REMARK  137  A    between atoms: _335  and  _337
REMARK  138  A    between atoms: _337  and  _338
REMARK  139  A    between atoms: _337  and  _340
REMARK  140  A    between atoms: _340  and  _341
REMARK  141  A    between atoms: _341  and  _342
REMARK  142  A    between atoms: _342  and  _343
REMARK  143  A    between atoms: _352  and  _354
REMARK  144  A    between atoms: _354  and  _355
REMARK  145  A    between atoms: _354  and  _357
REMARK  146  A    between atoms: _357  and  _358
REMARK  147  A    between atoms: _361  and  _363
REMARK  148  A    between atoms: _363  and  _364
REMARK  149  A    between atoms: _363  and  _366
REMARK  150  A    between atoms: _366  and  _367
REMARK  151  A    between atoms: _371  and  _372
REMARK  152  A    between atoms: _377  and  _379
REMARK  153  A    between atoms: _379  and  _380
REMARK  154  A    between atoms: _379  and  _382
REMARK  155  A    between atoms: _382  and  _383
REMARK  156  A    between atoms: _388  and  _389
REMARK  157  A    between atoms: _391  and  _393
REMARK  158  A    between atoms: _393  and  _394
REMARK  159  A    between atoms: _393  and  _396
REMARK  160  A    between atoms: _396  and  _397
REMARK  161  A    between atoms: _407  and  _409
REMARK  162  A    between atoms: _409  and  _410
REMARK  163  A    between atoms: _409  and  _412
REMARK  164  A    between atoms: _412  and  _413
REMARK  165  A    between atoms: _419  and  _421
REMARK  166  A    between atoms: _421  and  _422
REMARK  167  A    between atoms: _421  and  _424
REMARK  168  A    between atoms: _424  and  _425
REMARK  169  A    between atoms: _428  and  _430
REMARK  170  A    between atoms: _430  and  _431
REMARK  171  A    between atoms: _430  and  _433
REMARK  172  A    between atoms: _433  and  _434
REMARK  173  A    between atoms: _444  and  _446
REMARK  174  A    between atoms: _446  and  _447
REMARK  175  A    between atoms: _446  and  _449
REMARK  176  A    between atoms: _449  and  _450
REMARK  177  A    between atoms: _450  and  _451
REMARK  178  A    between atoms: _453  and  _455
REMARK  179  A    between atoms: _455  and  _456
REMARK  180  A    between atoms: _455  and  _458
REMARK  181  A    between atoms: _458  and  _459
REMARK  182  A    between atoms: _464  and  _466
REMARK  183  A    between atoms: _466  and  _467
REMARK  184  A    between atoms: _470  and  _471
REMARK  185  A    between atoms: _476  and  _478
REMARK  186  A    between atoms: _478  and  _479
REMARK  187  A    between atoms: _478  and  _481
REMARK  188  A    between atoms: _481  and  _482
REMARK  189  A    between atoms: _492  and  _494
REMARK  190  A    between atoms: _494  and  _495
REMARK  191  A    between atoms: _499  and  _500
REMARK  192  A    between atoms: _505  and  _507
REMARK  193  A    between atoms: _507  and  _508
REMARK  194  A    between atoms: _507  and  _510
REMARK  195  A    between atoms: _510  and  _511
REMARK  196  A    between atoms: _511  and  _512
REMARK  197  A    between atoms: _517  and  _519
REMARK  198  A    between atoms: _519  and  _520
REMARK  199  A    between atoms: _522  and  _524
REMARK  200  A    between atoms: _524  and  _525
REMARK  201  A    between atoms: _527  and  _529
REMARK  202  A    between atoms: _529  and  _530
REMARK  203  A    between atoms: _529  and  _532
REMARK  204  A    between atoms: _532  and  _533
REMARK  205  A    between atoms: _543  and  _545
REMARK  206  A    between atoms: _545  and  _546
REMARK  207  A    between atoms: _545  and  _548
REMARK  208  A    between atoms: _548  and  _549
REMARK  209  A    between atoms: _552  and  _554
REMARK  210  A    between atoms: _554  and  _555
REMARK  211  A    between atoms: _554  and  _557
REMARK  212  A    between atoms: _557  and  _558
REMARK  213  A    between atoms: _561  and  _563
REMARK  214  A    between atoms: _563  and  _564
REMARK  215  A    between atoms: _563  and  _566
REMARK  216  A    between atoms: _566  and  _567
REMARK  217  A    between atoms: _567  and  _568
REMARK  218  A    between atoms: _568  and  _569
REMARK  219  A    between atoms: _578  and  _580
REMARK  220  A    between atoms: _580  and  _581
REMARK  221  A    between atoms: _580  and  _583
REMARK  222  A    between atoms: _583  and  _584
REMARK  223  A    between atoms: _594  and  _596
REMARK  224  A    between atoms: _596  and  _597
REMARK  225  A    between atoms: _600  and  _602
REMARK  226  A    between atoms: _602  and  _603
REMARK  227  A    between atoms: _602  and  _605
REMARK  228  A    between atoms: _605  and  _606
REMARK  229  A    between atoms: _606  and  _607
REMARK  230  A    between atoms: _610  and  _612
REMARK  231  A    between atoms: _612  and  _613
REMARK  232  A    between atoms: _615  and  _617
REMARK  233  A    between atoms: _617  and  _618
REMARK  234  A    between atoms: _617  and  _620
REMARK  235  A    between atoms: _620  and  _621
REMARK  236  A    between atoms: _626  and  _628
REMARK  237  A    between atoms: _628  and  _629
REMARK  238  A    between atoms: _632  and  _634
REMARK  239  A    between atoms: _634  and  _635
REMARK  240  A    between atoms: _634  and  _637
REMARK  241  A    between atoms: _637  and  _638
REMARK  242  A    between atoms: _641  and  _643
REMARK  243  A    between atoms: _643  and  _644
REMARK  244  A    between atoms: _643  and  _646
REMARK  245  A    between atoms: _646  and  _647
REMARK  246  A    between atoms: _653  and  _655
REMARK  247  A    between atoms: _655  and  _656
REMARK  248  A    between atoms: _655  and  _658
REMARK  249  A    between atoms: _658  and  _659
REMARK  250  A    between atoms: _659  and  _660
REMARK  251  A    between atoms: _663  and  _665
REMARK  252  A    between atoms: _665  and  _666
REMARK  253  A    between atoms: _665  and  _668
REMARK  254  A    between atoms: _668  and  _669
REMARK  255  A    between atoms: _669  and  _670
REMARK  256  A    between atoms: _670  and  _671
REMARK                            x       y       z     vdW  Elec       q    Type
REMARK                         _______ _______ _______ _____ _____    ______ ____
ROOT
ATOM      1  CG  LYS A   1      -0.432 -19.788  15.474  0.00  0.00    -0.000 C 
ENDROOT
BRANCH   1   2
ATOM      2  CB  LYS A   1      -0.933 -20.443  14.202  0.00  0.00    +0.025 C 
BRANCH   2   3
ATOM      3  CA  LYS A   1      -0.065 -20.174  12.970  0.00  0.00    +0.133 C 
BRANCH   3   4
ATOM      4  N   LYS A   1      -0.164 -18.766  12.543  0.00  0.00    -0.239 NA
ATOM      5  H   LYS A   1      -0.834 -18.136  13.028  0.00  0.00    +0.142 HD
ENDBRANCH   3   4
BRANCH   3   6
ATOM      6  C   LYS A   1      -0.434 -21.144  11.844  0.00  0.00    +0.224 C 
ATOM      7  O   LYS A   1       0.223 -22.177  11.674  0.00  0.00    -0.287 OA
ENDBRANCH   3   6
ENDBRANCH   2   3
ENDBRANCH   1   2
BRANCH   1   8
ATOM      8  CD  LYS A   1      -1.238 -20.199  16.692  0.00  0.00    -0.024 C 
BRANCH   8   9
ATOM      9  CE  LYS A   1      -0.681 -19.543  17.955  0.00  0.00    -0.086 C 
BRANCH   9  10
ATOM     10  NZ  LYS A   1      -1.433 -19.979  19.173  0.00  0.00    +0.380 N 
ATOM     11  HZ1 LYS A   1      -1.030 -19.516  20.012  0.00  0.00    -0.089 HD
ATOM     12  HZ2 LYS A   1      -1.357 -21.011  19.275  0.00  0.00    -0.089 HD
ATOM     13  HZ3 LYS A   1      -2.433 -19.712  19.075  0.00  0.00    -0.089 HD
ENDBRANCH   9  10
ENDBRANCH   8   9
ENDBRANCH   1   8
TORSDOF 7
REMARK  Name = ../refined-set-2016/3k00/3k00_pocket.pdb
REMARK  256 active torsions:
REMARK  status: ('A' for Active; 'I' for Inactive)
REMARK    1  A    between atoms: _1  and  _3
REMARK    2  A    between atoms: _3  and  _4
REMARK    3  A    between atoms: _3  and  _6
REMARK    4  A    between atoms: _6  and  _7
REMARK    5  A    between atoms: _10  and  _12
REMARK    6  A    between atoms: _12  and  _13
REMARK    7  A    between atoms: _12  and  _15
REMARK    8  A    between atoms: _15  and  _16
REMARK    9  A    between atoms: _19  and  _21
REMARK   10  A    between atoms: _21  and  _22
REMARK   11  A    between atoms: _21  and  _24
REMARK   12  A    between atoms: _24  and  _25
REMARK   13  A    between atoms: _27  and  _29
REMARK   14  A    between atoms: _29  and  _30
REMARK   15  A    between atoms: _29  and  _32
REMARK   16  A    between atoms: _32  and  _33
REMARK   17  A    between atoms: _38  and  _40
REMARK   18  A    between atoms: _40  and  _41
REMARK   19  A    between atoms: _40  and  _43
REMARK   20  A    between atoms: _43  and  _44
REMARK   21  A    between atoms: _44  and  _45
REMARK   22  A    between atoms: _48  and  _50
REMARK   23  A    between atoms: _50  and  _51
REMARK   24  A    between atoms: _54  and  _56
REMARK   25  A    between atoms: _56  and  _57
REMARK   26  A    between atoms: _56  and  _59
REMARK   27  A    between atoms: _59  and  _60
REMARK   28  A    between atoms: _60  and  _61
REMARK   29  A    between atoms: _64  and  _66
REMARK   30  A    between atoms: _66  and  _67
REMARK   31  A    between atoms: _66  and  _69
REMARK   32  A    between atoms: _69  and  _70
REMARK   33  A    between atoms: _70  and  _71
REMARK   34  A    between atoms: _71  and  _72
REMARK   35  A    between atoms: _72  and  _73
REMARK   36  A    between atoms: _77  and  _79
REMARK   37  A    between atoms: _79  and  _80
REMARK   38  A    between atoms: _79  and  _82
REMARK   39  A    between atoms: _82  and  _83
REMARK   40  A    between atoms: _88  and  _89
REMARK   41  A    between atoms: _91  and  _93
REMARK   42  A    between atoms: _93  and  _94
REMARK   43  A    between atoms: _93  and  _96
REMARK   44  A    between atoms: _96  and  _97
REMARK   45  A    between atoms: _102  and  _104
REMARK   46  A    between atoms: _104  and  _105
REMARK   47  A    between atoms: _104  and  _107
REMARK   48  A    between atoms: _111  and  _112
REMARK   49  A    between atoms: _117  and  _119
REMARK   50  A    between atoms: _119  and  _120
REMARK   51  A    between atoms: _119  and  _122
REMARK   52  A    between atoms: _122  and  _123
REMARK   53  A    between atoms: _129  and  _131
REMARK   54  A    between atoms: _131  and  _132
REMARK   55  A    between atoms: _134  and  _136
REMARK   56  A    between atoms: _136  and  _137
REMARK   57  A    between atoms: _136  and  _139
REMARK   58  A    between atoms: _139  and  _140
REMARK   59  A    between atoms: _140  and  _141
REMARK   60  A    between atoms: _144  and  _146
REMARK   61  A    between atoms: _146  and  _147
REMARK   62  A    between atoms: _150  and  _152
REMARK   63  A    between atoms: _152  and  _153
REMARK   64  A    between atoms: _152  and  _155
REMARK   65  A    between atoms: _155  and  _156
REMARK   66  A    between atoms: _161  and  _163
REMARK   67  A    between atoms: _163  and  _164
REMARK   68  A    between atoms: _167  and  _169
REMARK   69  A    between atoms: _169  and  _170
REMARK   70  A    between atoms: _169  and  _172
REMARK   71  A    between atoms: _172  and  _173
REMARK   72  A    between atoms: _173  and  _174
REMARK   73  A    between atoms: _174  and  _175
REMARK   74  A    between atoms: _175  and  _176
REMARK   75  A    between atoms: _180  and  _182
REMARK   76  A    between atoms: _182  and  _183
REMARK   77  A    between atoms: _182  and  _185
REMARK   78  A    between atoms: _185  and  _186
REMARK   79  A    between atoms: _186  and  _187
REMARK   80  A    between atoms: _187  and  _188
REMARK   81  A    between atoms: _188  and  _189
REMARK   82  A    between atoms: _193  and  _195
REMARK   83  A    between atoms: _195  and  _196
REMARK   84  A    between atoms: _195  and  _198
REMARK   85  A    between atoms: _198  and  _199
REMARK   86  A    between atoms: _199  and  _200
REMARK   87  A    between atoms: _200  and  _201
REMARK   88  A    between atoms: _210  and  _212
REMARK   89  A    between atoms: _212  and  _213
REMARK   90  A    between atoms: _212  and  _215
REMARK   91  A    between atoms: _215  and  _216
REMARK   92  A    between atoms: _216  and  _217
REMARK   93  A    between atoms: _220  and  _222
REMARK   94  A    between atoms: _222  and  _223
REMARK   95  A    between atoms: _222  and  _225
REMARK   96  A    between atoms: _228  and  _230
REMARK   97  A    between atoms: _230  and  _231
REMARK   98  A    between atoms: _234  and  _236
REMARK   99  A    between atoms: _236  and  _237
REMARK  100  A    between atoms: _236  and  _239
REMARK  101  A    between atoms: _239  and  _240
REMARK  102  A    between atoms: _250  and  _252
REMARK  103  A    between atoms: _252  and  _253
REMARK  104  A    between atoms: _252  and  _255
REMARK  105  A    between atoms: _258  and  _260
REMARK  106  A    between atoms: _260  and  _261
REMARK  107  A    between atoms: _260  and  _263
REMARK  108  A    between atoms: _263  and  _264
REMARK  109  A    between atoms: _267  and  _269
REMARK  110  A    between atoms: _269  and  _270
REMARK  111  A    between atoms: _269  and  _272
REMARK  112  A    between atoms: _272  and  _273
REMARK  113  A    between atoms: _279  and  _281
REMARK  114  A    between atoms: _281  and  _282
REMARK  115  A    between atoms: _281  and  _284
REMARK  116  A    between atoms: _284  and  _285
REMARK  117  A    between atoms: _285  and  _286
REMARK  118  A    between atoms: _291  and  _293
REMARK  119  A    between atoms: _293  and  _294
REMARK  120  A    between atoms: _293  and  _296
REMARK  121  A    between atoms: _299  and  _301
REMARK  122  A    between atoms: _301  and  _302
REMARK  123  A    between atoms: _301  and  _304
REMARK  124  A    between atoms: _304  and  _305
REMARK  125  A    between atoms: _308  and  _310
REMARK  126  A    between atoms: _310  and  _311
REMARK  127  A    between atoms: _310  and  _313
REMARK  128  A    between atoms: _313  and  _314
REMARK  129  A    between atoms: _317  and  _319
REMARK  130  A    between atoms: _319  and  _320
REMARK  131  A    between atoms: _319  and  _322
REMARK  132  A    between atoms: _322  and  _323
REMARK  133  A    between atoms: _326  and  _328
REMARK  134  A    between atoms: _328  and  _329
REMARK  135  A    between atoms: _328  and  _331
REMARK  136  A    between atoms: _331  and  _332
REMARK  137  A    between atoms: _335  and  _337
REMARK  138  A    between atoms: _337  and  _338
REMARK  139  A    between atoms: _337  and  _340
REMARK  140  A    between atoms: _340  and  _341
REMARK  141  A    between atoms: _341  and  _342
REMARK  142  A    between atoms: _342  and  _343
REMARK  143  A    between atoms: _352  and  _354
REMARK  144  A    between atoms: _354  and  _355
REMARK  145  A    between atoms: _354  and  _357
REMARK  146  A    between atoms: _357  and  _358
REMARK  147  A    between atoms: _361  and  _363
REMARK  148  A    between atoms: _363  and  _364
REMARK  149  A    between atoms: _363  and  _366
REMARK  150  A    between atoms: _366  and  _367
REMARK  151  A    between atoms: _371  and  _372
REMARK  152  A    between atoms: _377  and  _379
REMARK  153  A    between atoms: _379  and  _380
REMARK  154  A    between atoms: _379  and  _382
REMARK  155  A    between atoms: _382  and  _383
REMARK  156  A    between atoms: _388  and  _389
REMARK  157  A    between atoms: _391  and  _393
REMARK  158  A    between atoms: _393  and  _394
REMARK  159  A    between atoms: _393  and  _396
REMARK  160  A    between atoms: _396  and  _397
REMARK  161  A    between atoms: _407  and  _409
REMARK  162  A    between atoms: _409  and  _410
REMARK  163  A    between atoms: _409  and  _412
REMARK  164  A    between atoms: _412  and  _413
REMARK  165  A    between atoms: _419  and  _421
REMARK  166  A    between atoms: _421  and  _422
REMARK  167  A    between atoms: _421  and  _424
REMARK  168  A    between atoms: _424  and  _425
REMARK  169  A    between atoms: _428  and  _430
REMARK  170  A    between atoms: _430  and  _431
REMARK  171  A    between atoms: _430  and  _433
REMARK  172  A    between atoms: _433  and  _434
REMARK  173  A    between atoms: _444  and  _446
REMARK  174  A    between atoms: _446  and  _447
REMARK  175  A    between atoms: _446  and  _449
REMARK  176  A    between atoms: _449  and  _450
REMARK  177  A    between atoms: _450  and  _451
REMARK  178  A    between atoms: _453  and  _455
REMARK  179  A    between atoms: _455  and  _456
REMARK  180  A    between atoms: _455  and  _458
REMARK  181  A    between atoms: _458  and  _459
REMARK  182  A    between atoms: _464  and  _466
REMARK  183  A    between atoms: _466  and  _467
REMARK  184  A    between atoms: _470  and  _471
REMARK  185  A    between atoms: _476  and  _478
REMARK  186  A    between atoms: _478  and  _479
REMARK  187  A    between atoms: _478  and  _481
REMARK  188  A    between atoms: _481  and  _482
REMARK  189  A    between atoms: _492  and  _494
REMARK  190  A    between atoms: _494  and  _495
REMARK  191  A    between atoms: _499  and  _500
REMARK  192  A    between atoms: _505  and  _507
REMARK  193  A    between atoms: _507  and  _508
REMARK  194  A    between atoms: _507  and  _510
REMARK  195  A    between atoms: _510  and  _511
REMARK  196  A    between atoms: _511  and  _512
REMARK  197  A    between atoms: _517  and  _519
REMARK  198  A    between atoms: _519  and  _520
REMARK  199  A    between atoms: _522  and  _524
REMARK  200  A    between atoms: _524  and  _525
REMARK  201  A    between atoms: _527  and  _529
REMARK  202  A    between atoms: _529  and  _530
REMARK  203  A    between atoms: _529  and  _532
REMARK  204  A    between atoms: _532  and  _533
REMARK  205  A    between atoms: _543  and  _545
REMARK  206  A    between atoms: _545  and  _546
REMARK  207  A    between atoms: _545  and  _548
REMARK  208  A    between atoms: _548  and  _549
REMARK  209  A    between atoms: _552  and  _554
REMARK  210  A    between atoms: _554  and  _555
REMARK  211  A    between atoms: _554  and  _557
REMARK  212  A    between atoms: _557  and  _558
REMARK  213  A    between atoms: _561  and  _563
REMARK  214  A    between atoms: _563  and  _564
REMARK  215  A    between atoms: _563  and  _566
REMARK  216  A    between atoms: _566  and  _567
REMARK  217  A    between atoms: _567  and  _568
REMARK  218  A    between atoms: _568  and  _569
REMARK  219  A    between atoms: _578  and  _580
REMARK  220  A    between atoms: _580  and  _581
REMARK  221  A    between atoms: _580  and  _583
REMARK  222  A    between atoms: _583  and  _584
REMARK  223  A    between atoms: _594  and  _596
REMARK  224  A    between atoms: _596  and  _597
REMARK  225  A    between atoms: _600  and  _602
REMARK  226  A    between atoms: _602  and  _603
REMARK  227  A    between atoms: _602  and  _605
REMARK  228  A    between atoms: _605  and  _606
REMARK  229  A    between atoms: _606  and  _607
REMARK  230  A    between atoms: _610  and  _612
REMARK  231  A    between atoms: _612  and  _613
REMARK  232  A    between atoms: _615  and  _617
REMARK  233  A    between atoms: _617  and  _618
REMARK  234  A    between atoms: _617  and  _620
REMARK  235  A    between atoms: _620  and  _621
REMARK  236  A    between atoms: _626  and  _628
REMARK  237  A    between atoms: _628  and  _629
REMARK  238  A    between atoms: _632  and  _634
REMARK  239  A    between atoms: _634  and  _635
REMARK  240  A    between atoms: _634  and  _637
REMARK  241  A    between atoms: _637  and  _638
REMARK  242  A    between atoms: _641  and  _643
REMARK  243  A    between atoms: _643  and  _644
REMARK  244  A    between atoms: _643  and  _646
REMARK  245  A    between atoms: _646  and  _647
REMARK  246  A    between atoms: _653  and  _655
REMARK  247  A    between atoms: _655  and  _656
REMARK  248  A    between atoms: _655  and  _658
REMARK  249  A    between atoms: _658  and  _659
REMARK  250  A    between atoms: _659  and  _660
REMARK  251  A    between atoms: _663  and  _665
REMARK  252  A    between atoms: _665  and  _666
REMARK  253  A    between atoms: _665  and  _668
REMARK  254  A    between atoms: _668  and  _669
REMARK  255  A    between atoms: _669  and  _670
REMARK  256  A    between atoms: _670  and  _671
REMARK                            x       y       z     vdW  Elec       q    Type
REMARK                         _______ _______ _______ _____ _____    ______ ____
ROOT
ATOM      1  NE  ARG A   1       2.439  -3.115  14.662  0.00  0.00    -0.265 N 
ATOM      2  CZ  ARG A   1       1.429  -2.345  15.045  0.00  0.00    +0.342 C 
ATOM      3  NH2 ARG A   1       1.685  -1.172  15.628  0.00  0.00    -0.292 N 
ATOM      4 HH21 ARG A   1       0.901  -0.560  15.932  0.00  0.00    +0.255 HD
ATOM      5 HH22 ARG A   1       2.669  -0.870  15.778  0.00  0.00    +0.255 HD
ATOM      6  NH1 ARG A   1       0.172  -2.749  14.851  0.00  0.00    -0.292 N 
ATOM      7 HH11 ARG A   1      -0.620  -2.146  15.151  0.00  0.00    +0.255 HD
ATOM      8 HH12 ARG A   1      -0.015  -3.667  14.400  0.00  0.00    +0.255 HD
ATOM      9  HE  ARG A   1       3.406  -2.792  14.870  0.00  0.00    +0.259 HD
ENDROOT
BRANCH   1  10
ATOM     10  CD  ARG A   1       2.275  -4.395  13.963  0.00  0.00    +0.174 C 
BRANCH  10  11
ATOM     11  CG  ARG A   1       3.536  -5.258  13.958  0.00  0.00    +0.045 C 
BRANCH  11  12
ATOM     12  CB  ARG A   1       3.379  -6.491  13.037  0.00  0.00    +0.029 C 
BRANCH  12  13
ATOM     13  CA  ARG A   1       4.241  -7.673  13.495  0.00  0.00    +0.133 C 
BRANCH  13  14
ATOM     14  N   ARG A   1       4.537  -8.604  12.403  0.00  0.00    -0.239 NA
ATOM     15  H   ARG A   1       4.005  -8.546  11.511  0.00  0.00    +0.142 HD
ENDBRANCH  13  14
BRANCH  13  16
ATOM     16  C   ARG A   1       3.542  -8.479  14.573  0.00  0.00    +0.224 C 
ATOM     17  O   ARG A   1       2.450  -9.003  14.357  0.00  0.00    -0.287 OA
ENDBRANCH  13  16
ENDBRANCH  12  13
ENDBRANCH  11  12
ENDBRANCH  10  11
ENDBRANCH   1  10
TORSDOF 6
REMARK  Name = ../refined-set-2016/3k00/3k00_pocket.pdb
REMARK  256 active torsions:
REMARK  status: ('A' for Active; 'I' for Inactive)
REMARK    1  A    between atoms: _1  and  _3
REMARK    2  A    between atoms: _3  and  _4
REMARK    3  A    between atoms: _3  and  _6
REMARK    4  A    between atoms: _6  and  _7
REMARK    5  A    between atoms: _10  and  _12
REMARK    6  A    between atoms: _12  and  _13
REMARK    7  A    between atoms: _12  and  _15
REMARK    8  A    between atoms: _15  and  _16
REMARK    9  A    between atoms: _19  and  _21
REMARK   10  A    between atoms: _21  and  _22
REMARK   11  A    between atoms: _21  and  _24
REMARK   12  A    between atoms: _24  and  _25
REMARK   13  A    between atoms: _27  and  _29
REMARK   14  A    between atoms: _29  and  _30
REMARK   15  A    between atoms: _29  and  _32
REMARK   16  A    between atoms: _32  and  _33
REMARK   17  A    between atoms: _38  and  _40
REMARK   18  A    between atoms: _40  and  _41
REMARK   19  A    between atoms: _40  and  _43
REMARK   20  A    between atoms: _43  and  _44
REMARK   21  A    between atoms: _44  and  _45
REMARK   22  A    between atoms: _48  and  _50
REMARK   23  A    between atoms: _50  and  _51
REMARK   24  A    between atoms: _54  and  _56
REMARK   25  A    between atoms: _56  and  _57
REMARK   26  A    between atoms: _56  and  _59
REMARK   27  A    between atoms: _59  and  _60
REMARK   28  A    between atoms: _60  and  _61
REMARK   29  A    between atoms: _64  and  _66
REMARK   30  A    between atoms: _66  and  _67
REMARK   31  A    between atoms: _66  and  _69
REMARK   32  A    between atoms: _69  and  _70
REMARK   33  A    between atoms: _70  and  _71
REMARK   34  A    between atoms: _71  and  _72
REMARK   35  A    between atoms: _72  and  _73
REMARK   36  A    between atoms: _77  and  _79
REMARK   37  A    between atoms: _79  and  _80
REMARK   38  A    between atoms: _79  and  _82
REMARK   39  A    between atoms: _82  and  _83
REMARK   40  A    between atoms: _88  and  _89
REMARK   41  A    between atoms: _91  and  _93
REMARK   42  A    between atoms: _93  and  _94
REMARK   43  A    between atoms: _93  and  _96
REMARK   44  A    between atoms: _96  and  _97
REMARK   45  A    between atoms: _102  and  _104
REMARK   46  A    between atoms: _104  and  _105
REMARK   47  A    between atoms: _104  and  _107
REMARK   48  A    between atoms: _111  and  _112
REMARK   49  A    between atoms: _117  and  _119
REMARK   50  A    between atoms: _119  and  _120
REMARK   51  A    between atoms: _119  and  _122
REMARK   52  A    between atoms: _122  and  _123
REMARK   53  A    between atoms: _129  and  _131
REMARK   54  A    between atoms: _131  and  _132
REMARK   55  A    between atoms: _134  and  _136
REMARK   56  A    between atoms: _136  and  _137
REMARK   57  A    between atoms: _136  and  _139
REMARK   58  A    between atoms: _139  and  _140
REMARK   59  A    between atoms: _140  and  _141
REMARK   60  A    between atoms: _144  and  _146
REMARK   61  A    between atoms: _146  and  _147
REMARK   62  A    between atoms: _150  and  _152
REMARK   63  A    between atoms: _152  and  _153
REMARK   64  A    between atoms: _152  and  _155
REMARK   65  A    between atoms: _155  and  _156
REMARK   66  A    between atoms: _161  and  _163
REMARK   67  A    between atoms: _163  and  _164
REMARK   68  A    between atoms: _167  and  _169
REMARK   69  A    between atoms: _169  and  _170
REMARK   70  A    between atoms: _169  and  _172
REMARK   71  A    between atoms: _172  and  _173
REMARK   72  A    between atoms: _173  and  _174
REMARK   73  A    between atoms: _174  and  _175
REMARK   74  A    between atoms: _175  and  _176
REMARK   75  A    between atoms: _180  and  _182
REMARK   76  A    between atoms: _182  and  _183
REMARK   77  A    between atoms: _182  and  _185
REMARK   78  A    between atoms: _185  and  _186
REMARK   79  A    between atoms: _186  and  _187
REMARK   80  A    between atoms: _187  and  _188
REMARK   81  A    between atoms: _188  and  _189
REMARK   82  A    between atoms: _193  and  _195
REMARK   83  A    between atoms: _195  and  _196
REMARK   84  A    between atoms: _195  and  _198
REMARK   85  A    between atoms: _198  and  _199
REMARK   86  A    between atoms: _199  and  _200
REMARK   87  A    between atoms: _200  and  _201
REMARK   88  A    between atoms: _210  and  _212
REMARK   89  A    between atoms: _212  and  _213
REMARK   90  A    between atoms: _212  and  _215
REMARK   91  A    between atoms: _215  and  _216
REMARK   92  A    between atoms: _216  and  _217
REMARK   93  A    between atoms: _220  and  _222
REMARK   94  A    between atoms: _222  and  _223
REMARK   95  A    between atoms: _222  and  _225
REMARK   96  A    between atoms: _228  and  _230
REMARK   97  A    between atoms: _230  and  _231
REMARK   98  A    between atoms: _234  and  _236
REMARK   99  A    between atoms: _236  and  _237
REMARK  100  A    between atoms: _236  and  _239
REMARK  101  A    between atoms: _239  and  _240
REMARK  102  A    between atoms: _250  and  _252
REMARK  103  A    between atoms: _252  and  _253
REMARK  104  A    between atoms: _252  and  _255
REMARK  105  A    between atoms: _258  and  _260
REMARK  106  A    between atoms: _260  and  _261
REMARK  107  A    between atoms: _260  and  _263
REMARK  108  A    between atoms: _263  and  _264
REMARK  109  A    between atoms: _267  and  _269
REMARK  110  A    between atoms: _269  and  _270
REMARK  111  A    between atoms: _269  and  _272
REMARK  112  A    between atoms: _272  and  _273
REMARK  113  A    between atoms: _279  and  _281
REMARK  114  A    between atoms: _281  and  _282
REMARK  115  A    between atoms: _281  and  _284
REMARK  116  A    between atoms: _284  and  _285
REMARK  117  A    between atoms: _285  and  _286
REMARK  118  A    between atoms: _291  and  _293
REMARK  119  A    between atoms: _293  and  _294
REMARK  120  A    between atoms: _293  and  _296
REMARK  121  A    between atoms: _299  and  _301
REMARK  122  A    between atoms: _301  and  _302
REMARK  123  A    between atoms: _301  and  _304
REMARK  124  A    between atoms: _304  and  _305
REMARK  125  A    between atoms: _308  and  _310
REMARK  126  A    between atoms: _310  and  _311
REMARK  127  A    between atoms: _310  and  _313
REMARK  128  A    between atoms: _313  and  _314
REMARK  129  A    between atoms: _317  and  _319
REMARK  130  A    between atoms: _319  and  _320
REMARK  131  A    between atoms: _319  and  _322
REMARK  132  A    between atoms: _322  and  _323
REMARK  133  A    between atoms: _326  and  _328
REMARK  134  A    between atoms: _328  and  _329
REMARK  135  A    between atoms: _328  and  _331
REMARK  136  A    between atoms: _331  and  _332
REMARK  137  A    between atoms: _335  and  _337
REMARK  138  A    between atoms: _337  and  _338
REMARK  139  A    between atoms: _337  and  _340
REMARK  140  A    between atoms: _340  and  _341
REMARK  141  A    between atoms: _341  and  _342
REMARK  142  A    between atoms: _342  and  _343
REMARK  143  A    between atoms: _352  and  _354
REMARK  144  A    between atoms: _354  and  _355
REMARK  145  A    between atoms: _354  and  _357
REMARK  146  A    between atoms: _357  and  _358
REMARK  147  A    between atoms: _361  and  _363
REMARK  148  A    between atoms: _363  and  _364
REMARK  149  A    between atoms: _363  and  _366
REMARK  150  A    between atoms: _366  and  _367
REMARK  151  A    between atoms: _371  and  _372
REMARK  152  A    between atoms: _377  and  _379
REMARK  153  A    between atoms: _379  and  _380
REMARK  154  A    between atoms: _379  and  _382
REMARK  155  A    between atoms: _382  and  _383
REMARK  156  A    between atoms: _388  and  _389
REMARK  157  A    between atoms: _391  and  _393
REMARK  158  A    between atoms: _393  and  _394
REMARK  159  A    between atoms: _393  and  _396
REMARK  160  A    between atoms: _396  and  _397
REMARK  161  A    between atoms: _407  and  _409
REMARK  162  A    between atoms: _409  and  _410
REMARK  163  A    between atoms: _409  and  _412
REMARK  164  A    between atoms: _412  and  _413
REMARK  165  A    between atoms: _419  and  _421
REMARK  166  A    between atoms: _421  and  _422
REMARK  167  A    between atoms: _421  and  _424
REMARK  168  A    between atoms: _424  and  _425
REMARK  169  A    between atoms: _428  and  _430
REMARK  170  A    between atoms: _430  and  _431
REMARK  171  A    between atoms: _430  and  _433
REMARK  172  A    between atoms: _433  and  _434
REMARK  173  A    between atoms: _444  and  _446
REMARK  174  A    between atoms: _446  and  _447
REMARK  175  A    between atoms: _446  and  _449
REMARK  176  A    between atoms: _449  and  _450
REMARK  177  A    between atoms: _450  and  _451
REMARK  178  A    between atoms: _453  and  _455
REMARK  179  A    between atoms: _455  and  _456
REMARK  180  A    between atoms: _455  and  _458
REMARK  181  A    between atoms: _458  and  _459
REMARK  182  A    between atoms: _464  and  _466
REMARK  183  A    between atoms: _466  and  _467
REMARK  184  A    between atoms: _470  and  _471
REMARK  185  A    between atoms: _476  and  _478
REMARK  186  A    between atoms: _478  and  _479
REMARK  187  A    between atoms: _478  and  _481
REMARK  188  A    between atoms: _481  and  _482
REMARK  189  A    between atoms: _492  and  _494
REMARK  190  A    between atoms: _494  and  _495
REMARK  191  A    between atoms: _499  and  _500
REMARK  192  A    between atoms: _505  and  _507
REMARK  193  A    between atoms: _507  and  _508
REMARK  194  A    between atoms: _507  and  _510
REMARK  195  A    between atoms: _510  and  _511
REMARK  196  A    between atoms: _511  and  _512
REMARK  197  A    between atoms: _517  and  _519
REMARK  198  A    between atoms: _519  and  _520
REMARK  199  A    between atoms: _522  and  _524
REMARK  200  A    between atoms: _524  and  _525
REMARK  201  A    between atoms: _527  and  _529
REMARK  202  A    between atoms: _529  and  _530
REMARK  203  A    between atoms: _529  and  _532
REMARK  204  A    between atoms: _532  and  _533
REMARK  205  A    between atoms: _543  and  _545
REMARK  206  A    between atoms: _545  and  _546
REMARK  207  A    between atoms: _545  and  _548
REMARK  208  A    between atoms: _548  and  _549
REMARK  209  A    between atoms: _552  and  _554
REMARK  210  A    between atoms: _554  and  _555
REMARK  211  A    between atoms: _554  and  _557
REMARK  212  A    between atoms: _557  and  _558
REMARK  213  A    between atoms: _561  and  _563
REMARK  214  A    between atoms: _563  and  _564
REMARK  215  A    between atoms: _563  and  _566
REMARK  216  A    between atoms: _566  and  _567
REMARK  217  A    between atoms: _567  and  _568
REMARK  218  A    between atoms: _568  and  _569
REMARK  219  A    between atoms: _578  and  _580
REMARK  220  A    between atoms: _580  and  _581
REMARK  221  A    between atoms: _580  and  _583
REMARK  222  A    between atoms: _583  and  _584
REMARK  223  A    between atoms: _594  and  _596
REMARK  224  A    between atoms: _596  and  _597
REMARK  225  A    between atoms: _600  and  _602
REMARK  226  A    between atoms: _602  and  _603
REMARK  227  A    between atoms: _602  and  _605
REMARK  228  A    between atoms: _605  and  _606
REMARK  229  A    between atoms: _606  and  _607
REMARK  230  A    between atoms: _610  and  _612
REMARK  231  A    between atoms: _612  and  _613
REMARK  232  A    between atoms: _615  and  _617
REMARK  233  A    between atoms: _617  and  _618
REMARK  234  A    between atoms: _617  and  _620
REMARK  235  A    between atoms: _620  and  _621
REMARK  236  A    between atoms: _626  and  _628
REMARK  237  A    between atoms: _628  and  _629
REMARK  238  A    between atoms: _632  and  _634
REMARK  239  A    between atoms: _634  and  _635
REMARK  240  A    between atoms: _634  and  _637
REMARK  241  A    between atoms: _637  and  _638
REMARK  242  A    between atoms: _641  and  _643
REMARK  243  A    between atoms: _643  and  _644
REMARK  244  A    between atoms: _643  and  _646
REMARK  245  A    between atoms: _646  and  _647
REMARK  246  A    between atoms: _653  and  _655
REMARK  247  A    between atoms: _655  and  _656
REMARK  248  A    between atoms: _655  and  _658
REMARK  249  A    between atoms: _658  and  _659
REMARK  250  A    between atoms: _659  and  _660
REMARK  251  A    between atoms: _663  and  _665
REMARK  252  A    between atoms: _665  and  _666
REMARK  253  A    between atoms: _665  and  _668
REMARK  254  A    between atoms: _668  and  _669
REMARK  255  A    between atoms: _669  and  _670
REMARK  256  A    between atoms: _670  and  _671
REMARK                            x       y       z     vdW  Elec       q    Type
REMARK                         _______ _______ _______ _____ _____    ______ ____
ROOT
ATOM      1  C   ALA A   3       1.792 -12.831  23.103  0.00  0.00    +0.241 C 
ATOM      2  O   ALA A   3       1.856 -14.005  23.486  0.00  0.00    -0.273 OA
ATOM      3  N   TRP A   4       1.903 -12.478  21.816  0.00  0.00    -0.297 N 
ATOM      4  H   TRP A   4       1.842 -11.471  21.562  0.00  0.00    +0.150 HD
ENDROOT
BRANCH   1   5
ATOM      5  CA  ALA A   3       1.559 -11.697  24.108  0.00  0.00    +0.149 C 
ATOM      6  CB  ALA A   3       0.106 -11.705  24.609  0.00  0.00    +0.031 C 
BRANCH   5   9
ATOM      7  C   VAL A   2       3.165  -9.945  23.555  0.00  0.00    +0.241 C 
ATOM      8  O   VAL A   2       4.105 -10.651  23.948  0.00  0.00    -0.273 OA
ATOM      9  N   ALA A   3       1.901 -10.374  23.582  0.00  0.00    -0.297 N 
ATOM     10  H   ALA A   3       1.145  -9.757  23.223  0.00  0.00    +0.150 HD
BRANCH   7  11
ATOM     11  CA  VAL A   2       3.435  -8.545  22.988  0.00  0.00    +0.148 C 
BRANCH  11  13
ATOM     12  C   GLU A   1       2.446  -9.004  20.811  0.00  0.00    +0.238 C 
ATOM     13  N   VAL A   2       2.580  -8.174  21.840  0.00  0.00    -0.297 N 
ATOM     14  H   VAL A   2       2.082  -7.261  21.838  0.00  0.00    +0.150 HD
ATOM     15  O   GLU A   1       2.984 -10.127  20.789  0.00  0.00    -0.274 OA
BRANCH  12  16
ATOM     16  CA  GLU A   1       1.629  -8.498  19.618  0.00  0.00    +0.145 C 
BRANCH  16  17
ATOM     17  N   GLU A   1       2.157  -9.111  18.407  0.00  0.00    -0.238 NA
ATOM     18  H   GLU A   1       1.546  -9.720  17.827  0.00  0.00    +0.142 HD
ENDBRANCH  16  17
BRANCH  16  19
ATOM     19  CB  GLU A   1       0.135  -8.811  19.769  0.00  0.00    +0.038 C 
BRANCH  19  20
ATOM     20  CG  GLU A   1      -0.667  -7.775  20.558  0.00  0.00    +0.116 C 
BRANCH  20  21
ATOM     21  CD  GLU A   1      -0.711  -8.044  22.061  0.00  0.00    +0.365 C 
ATOM     22  OE2 GLU A   1      -0.992  -7.093  22.815  0.00  0.00    -0.246 OA
ATOM     23  OE1 GLU A   1      -0.513  -9.204  22.504  0.00  0.00    -0.246 OA
ENDBRANCH  20  21
ENDBRANCH  19  20
ENDBRANCH  16  19
ENDBRANCH  12  16
ENDBRANCH  11  13
BRANCH  11  24
ATOM     24  CB  VAL A   2       3.426  -7.466  24.126  0.00  0.00    +0.027 C 
ATOM     25  CG2 VAL A   2       1.998  -7.109  24.560  0.00  0.00    +0.002 C 
ATOM     26  CG1 VAL A   2       4.158  -6.207  23.685  0.00  0.00    +0.002 C 
ENDBRANCH  11  24
ENDBRANCH   7  11
ENDBRANCH   5   9
ENDBRANCH   1   5
BRANCH   3  27
ATOM     27  CA  TRP A   4       2.109 -13.470  20.752  0.00  0.00    +0.153 C 
BRANCH  27  28
ATOM     28  C   TRP A   4       3.536 -13.990  20.676  0.00  0.00    +0.241 C 
ATOM     29  N   VAL A   5       4.498 -13.233  21.210  0.00  0.00    -0.298 N 
ATOM     30  H   VAL A   5       4.260 -12.319  21.646  0.00  0.00    +0.150 HD
ATOM     31  O   TRP A   4       3.765 -15.054  20.110  0.00  0.00    -0.273 OA
BRANCH  29  32
ATOM     32  CA  VAL A   5       5.887 -13.692  21.181  0.00  0.00    +0.137 C 
BRANCH  32  33
ATOM     33  CB  VAL A   5       6.876 -12.682  21.806  0.00  0.00    +0.026 C 
ATOM     34  CG2 VAL A   5       8.323 -13.211  21.705  0.00  0.00    +0.002 C 
ATOM     35  CG1 VAL A   5       6.753 -11.313  21.120  0.00  0.00    +0.002 C 
ENDBRANCH  32  33
BRANCH  32  36
ATOM     36  C   VAL A   5       6.023 -15.069  21.848  0.00  0.00    +0.227 C 
ATOM     37  O   VAL A   5       6.485 -16.017  21.208  0.00  0.00    -0.286 OA
ENDBRANCH  32  36
ENDBRANCH  29  32
ENDBRANCH  27  28
BRANCH  27  38
ATOM     38  CB  TRP A   4       1.716 -12.924  19.371  0.00  0.00    +0.057 C 
BRANCH  38  39
ATOM     39  CG  TRP A   4       0.294 -12.475  19.251  0.00  0.00    -0.002 A 
ATOM     40  CD1 TRP A   4      -0.692 -12.627  20.168  0.00  0.00    +0.068 A 
ATOM     41  NE1 TRP A   4      -1.869 -12.083  19.695  0.00  0.00    -0.352 N 
ATOM     42  HE1 TRP A   4      -2.769 -12.043  20.215  0.00  0.00    +0.166 HD
ATOM     43  CE2 TRP A   4      -1.658 -11.604  18.428  0.00  0.00    +0.056 A 
ATOM     44  CZ2 TRP A   4      -2.543 -10.975  17.539  0.00  0.00    +0.017 A 
ATOM     45  CH2 TRP A   4      -2.044 -10.589  16.319  0.00  0.00    +0.001 A 
ATOM     46  CZ3 TRP A   4      -0.703 -10.816  15.970  0.00  0.00    +0.000 A 
ATOM     47  CE3 TRP A   4       0.176 -11.448  16.853  0.00  0.00    +0.001 A 
ATOM     48  CD2 TRP A   4      -0.306 -11.841  18.111  0.00  0.00    +0.013 A 
ENDBRANCH  38  39
ENDBRANCH  27  38
ENDBRANCH   3  27
TORSDOF 17
REMARK  Name = ../refined-set-2016/3k00/3k00_pocket.pdb
REMARK  256 active torsions:
REMARK  status: ('A' for Active; 'I' for Inactive)
REMARK    1  A    between atoms: _1  and  _3
REMARK    2  A    between atoms: _3  and  _4
REMARK    3  A    between atoms: _3  and  _6
REMARK    4  A    between atoms: _6  and  _7
REMARK    5  A    between atoms: _10  and  _12
REMARK    6  A    between atoms: _12  and  _13
REMARK    7  A    between atoms: _12  and  _15
REMARK    8  A    between atoms: _15  and  _16
REMARK    9  A    between atoms: _19  and  _21
REMARK   10  A    between atoms: _21  and  _22
REMARK   11  A    between atoms: _21  and  _24
REMARK   12  A    between atoms: _24  and  _25
REMARK   13  A    between atoms: _27  and  _29
REMARK   14  A    between atoms: _29  and  _30
REMARK   15  A    between atoms: _29  and  _32
REMARK   16  A    between atoms: _32  and  _33
REMARK   17  A    between atoms: _38  and  _40
REMARK   18  A    between atoms: _40  and  _41
REMARK   19  A    between atoms: _40  and  _43
REMARK   20  A    between atoms: _43  and  _44
REMARK   21  A    between atoms: _44  and  _45
REMARK   22  A    between atoms: _48  and  _50
REMARK   23  A    between atoms: _50  and  _51
REMARK   24  A    between atoms: _54  and  _56
REMARK   25  A    between atoms: _56  and  _57
REMARK   26  A    between atoms: _56  and  _59
REMARK   27  A    between atoms: _59  and  _60
REMARK   28  A    between atoms: _60  and  _61
REMARK   29  A    between atoms: _64  and  _66
REMARK   30  A    between atoms: _66  and  _67
REMARK   31  A    between atoms: _66  and  _69
REMARK   32  A    between atoms: _69  and  _70
REMARK   33  A    between atoms: _70  and  _71
REMARK   34  A    between atoms: _71  and  _72
REMARK   35  A    between atoms: _72  and  _73
REMARK   36  A    between atoms: _77  and  _79
REMARK   37  A    between atoms: _79  and  _80
REMARK   38  A    between atoms: _79  and  _82
REMARK   39  A    between atoms: _82  and  _83
REMARK   40  A    between atoms: _88  and  _89
REMARK   41  A    between atoms: _91  and  _93
REMARK   42  A    between atoms: _93  and  _94
REMARK   43  A    between atoms: _93  and  _96
REMARK   44  A    between atoms: _96  and  _97
REMARK   45  A    between atoms: _102  and  _104
REMARK   46  A    between atoms: _104  and  _105
REMARK   47  A    between atoms: _104  and  _107
REMARK   48  A    between atoms: _111  and  _112
REMARK   49  A    between atoms: _117  and  _119
REMARK   50  A    between atoms: _119  and  _120
REMARK   51  A    between atoms: _119  and  _122
REMARK   52  A    between atoms: _122  and  _123
REMARK   53  A    between atoms: _129  and  _131
REMARK   54  A    between atoms: _131  and  _132
REMARK   55  A    between atoms: _134  and  _136
REMARK   56  A    between atoms: _136  and  _137
REMARK   57  A    between atoms: _136  and  _139
REMARK   58  A    between atoms: _139  and  _140
REMARK   59  A    between atoms: _140  and  _141
REMARK   60  A    between atoms: _144  and  _146
REMARK   61  A    between atoms: _146  and  _147
REMARK   62  A    between atoms: _150  and  _152
REMARK   63  A    between atoms: _152  and  _153
REMARK   64  A    between atoms: _152  and  _155
REMARK   65  A    between atoms: _155  and  _156
REMARK   66  A    between atoms: _161  and  _163
REMARK   67  A    between atoms: _163  and  _164
REMARK   68  A    between atoms: _167  and  _169
REMARK   69  A    between atoms: _169  and  _170
REMARK   70  A    between atoms: _169  and  _172
REMARK   71  A    between atoms: _172  and  _173
REMARK   72  A    between atoms: _173  and  _174
REMARK   73  A    between atoms: _174  and  _175
REMARK   74  A    between atoms: _175  and  _176
REMARK   75  A    between atoms: _180  and  _182
REMARK   76  A    between atoms: _182  and  _183
REMARK   77  A    between atoms: _182  and  _185
REMARK   78  A    between atoms: _185  and  _186
REMARK   79  A    between atoms: _186  and  _187
REMARK   80  A    between atoms: _187  and  _188
REMARK   81  A    between atoms: _188  and  _189
REMARK   82  A    between atoms: _193  and  _195
REMARK   83  A    between atoms: _195  and  _196
REMARK   84  A    between atoms: _195  and  _198
REMARK   85  A    between atoms: _198  and  _199
REMARK   86  A    between atoms: _199  and  _200
REMARK   87  A    between atoms: _200  and  _201
REMARK   88  A    between atoms: _210  and  _212
REMARK   89  A    between atoms: _212  and  _213
REMARK   90  A    between atoms: _212  and  _215
REMARK   91  A    between atoms: _215  and  _216
REMARK   92  A    between atoms: _216  and  _217
REMARK   93  A    between atoms: _220  and  _222
REMARK   94  A    between atoms: _222  and  _223
REMARK   95  A    between atoms: _222  and  _225
REMARK   96  A    between atoms: _228  and  _230
REMARK   97  A    between atoms: _230  and  _231
REMARK   98  A    between atoms: _234  and  _236
REMARK   99  A    between atoms: _236  and  _237
REMARK  100  A    between atoms: _236  and  _239
REMARK  101  A    between atoms: _239  and  _240
REMARK  102  A    between atoms: _250  and  _252
REMARK  103  A    between atoms: _252  and  _253
REMARK  104  A    between atoms: _252  and  _255
REMARK  105  A    between atoms: _258  and  _260
REMARK  106  A    between atoms: _260  and  _261
REMARK  107  A    between atoms: _260  and  _263
REMARK  108  A    between atoms: _263  and  _264
REMARK  109  A    between atoms: _267  and  _269
REMARK  110  A    between atoms: _269  and  _270
REMARK  111  A    between atoms: _269  and  _272
REMARK  112  A    between atoms: _272  and  _273
REMARK  113  A    between atoms: _279  and  _281
REMARK  114  A    between atoms: _281  and  _282
REMARK  115  A    between atoms: _281  and  _284
REMARK  116  A    between atoms: _284  and  _285
REMARK  117  A    between atoms: _285  and  _286
REMARK  118  A    between atoms: _291  and  _293
REMARK  119  A    between atoms: _293  and  _294
REMARK  120  A    between atoms: _293  and  _296
REMARK  121  A    between atoms: _299  and  _301
REMARK  122  A    between atoms: _301  and  _302
REMARK  123  A    between atoms: _301  and  _304
REMARK  124  A    between atoms: _304  and  _305
REMARK  125  A    between atoms: _308  and  _310
REMARK  126  A    between atoms: _310  and  _311
REMARK  127  A    between atoms: _310  and  _313
REMARK  128  A    between atoms: _313  and  _314
REMARK  129  A    between atoms: _317  and  _319
REMARK  130  A    between atoms: _319  and  _320
REMARK  131  A    between atoms: _319  and  _322
REMARK  132  A    between atoms: _322  and  _323
REMARK  133  A    between atoms: _326  and  _328
REMARK  134  A    between atoms: _328  and  _329
REMARK  135  A    between atoms: _328  and  _331
REMARK  136  A    between atoms: _331  and  _332
REMARK  137  A    between atoms: _335  and  _337
REMARK  138  A    between atoms: _337  and  _338
REMARK  139  A    between atoms: _337  and  _340
REMARK  140  A    between atoms: _340  and  _341
REMARK  141  A    between atoms: _341  and  _342
REMARK  142  A    between atoms: _342  and  _343
REMARK  143  A    between atoms: _352  and  _354
REMARK  144  A    between atoms: _354  and  _355
REMARK  145  A    between atoms: _354  and  _357
REMARK  146  A    between atoms: _357  and  _358
REMARK  147  A    between atoms: _361  and  _363
REMARK  148  A    between atoms: _363  and  _364
REMARK  149  A    between atoms: _363  and  _366
REMARK  150  A    between atoms: _366  and  _367
REMARK  151  A    between atoms: _371  and  _372
REMARK  152  A    between atoms: _377  and  _379
REMARK  153  A    between atoms: _379  and  _380
REMARK  154  A    between atoms: _379  and  _382
REMARK  155  A    between atoms: _382  and  _383
REMARK  156  A    between atoms: _388  and  _389
REMARK  157  A    between atoms: _391  and  _393
REMARK  158  A    between atoms: _393  and  _394
REMARK  159  A    between atoms: _393  and  _396
REMARK  160  A    between atoms: _396  and  _397
REMARK  161  A    between atoms: _407  and  _409
REMARK  162  A    between atoms: _409  and  _410
REMARK  163  A    between atoms: _409  and  _412
REMARK  164  A    between atoms: _412  and  _413
REMARK  165  A    between atoms: _419  and  _421
REMARK  166  A    between atoms: _421  and  _422
REMARK  167  A    between atoms: _421  and  _424
REMARK  168  A    between atoms: _424  and  _425
REMARK  169  A    between atoms: _428  and  _430
REMARK  170  A    between atoms: _430  and  _431
REMARK  171  A    between atoms: _430  and  _433
REMARK  172  A    between atoms: _433  and  _434
REMARK  173  A    between atoms: _444  and  _446
REMARK  174  A    between atoms: _446  and  _447
REMARK  175  A    between atoms: _446  and  _449
REMARK  176  A    between atoms: _449  and  _450
REMARK  177  A    between atoms: _450  and  _451
REMARK  178  A    between atoms: _453  and  _455
REMARK  179  A    between atoms: _455  and  _456
REMARK  180  A    between atoms: _455  and  _458
REMARK  181  A    between atoms: _458  and  _459
REMARK  182  A    between atoms: _464  and  _466
REMARK  183  A    between atoms: _466  and  _467
REMARK  184  A    between atoms: _470  and  _471
REMARK  185  A    between atoms: _476  and  _478
REMARK  186  A    between atoms: _478  and  _479
REMARK  187  A    between atoms: _478  and  _481
REMARK  188  A    between atoms: _481  and  _482
REMARK  189  A    between atoms: _492  and  _494
REMARK  190  A    between atoms: _494  and  _495
REMARK  191  A    between atoms: _499  and  _500
REMARK  192  A    between atoms: _505  and  _507
REMARK  193  A    between atoms: _507  and  _508
REMARK  194  A    between atoms: _507  and  _510
REMARK  195  A    between atoms: _510  and  _511
REMARK  196  A    between atoms: _511  and  _512
REMARK  197  A    between atoms: _517  and  _519
REMARK  198  A    between atoms: _519  and  _520
REMARK  199  A    between atoms: _522  and  _524
REMARK  200  A    between atoms: _524  and  _525
REMARK  201  A    between atoms: _527  and  _529
REMARK  202  A    between atoms: _529  and  _530
REMARK  203  A    between atoms: _529  and  _532
REMARK  204  A    between atoms: _532  and  _533
REMARK  205  A    between atoms: _543  and  _545
REMARK  206  A    between atoms: _545  and  _546
REMARK  207  A    between atoms: _545  and  _548
REMARK  208  A    between atoms: _548  and  _549
REMARK  209  A    between atoms: _552  and  _554
REMARK  210  A    between atoms: _554  and  _555
REMARK  211  A    between atoms: _554  and  _557
REMARK  212  A    between atoms: _557  and  _558
REMARK  213  A    between atoms: _561  and  _563
REMARK  214  A    between atoms: _563  and  _564
REMARK  215  A    between atoms: _563  and  _566
REMARK  216  A    between atoms: _566  and  _567
REMARK  217  A    between atoms: _567  and  _568
REMARK  218  A    between atoms: _568  and  _569
REMARK  219  A    between atoms: _578  and  _580
REMARK  220  A    between atoms: _580  and  _581
REMARK  221  A    between atoms: _580  and  _583
REMARK  222  A    between atoms: _583  and  _584
REMARK  223  A    between atoms: _594  and  _596
REMARK  224  A    between atoms: _596  and  _597
REMARK  225  A    between atoms: _600  and  _602
REMARK  226  A    between atoms: _602  and  _603
REMARK  227  A    between atoms: _602  and  _605
REMARK  228  A    between atoms: _605  and  _606
REMARK  229  A    between atoms: _606  and  _607
REMARK  230  A    between atoms: _610  and  _612
REMARK  231  A    between atoms: _612  and  _613
REMARK  232  A    between atoms: _615  and  _617
REMARK  233  A    between atoms: _617  and  _618
REMARK  234  A    between atoms: _617  and  _620
REMARK  235  A    between atoms: _620  and  _621
REMARK  236  A    between atoms: _626  and  _628
REMARK  237  A    between atoms: _628  and  _629
REMARK  238  A    between atoms: _632  and  _634
REMARK  239  A    between atoms: _634  and  _635
REMARK  240  A    between atoms: _634  and  _637
REMARK  241  A    between atoms: _637  and  _638
REMARK  242  A    between atoms: _641  and  _643
REMARK  243  A    between atoms: _643  and  _644
REMARK  244  A    between atoms: _643  and  _646
REMARK  245  A    between atoms: _646  and  _647
REMARK  246  A    between atoms: _653  and  _655
REMARK  247  A    between atoms: _655  and  _656
REMARK  248  A    between atoms: _655  and  _658
REMARK  249  A    between atoms: _658  and  _659
REMARK  250  A    between atoms: _659  and  _660
REMARK  251  A    between atoms: _663  and  _665
REMARK  252  A    between atoms: _665  and  _666
REMARK  253  A    between atoms: _665  and  _668
REMARK  254  A    between atoms: _668  and  _669
REMARK  255  A    between atoms: _669  and  _670
REMARK  256  A    between atoms: _670  and  _671
REMARK                            x       y       z     vdW  Elec       q    Type
REMARK                         _______ _______ _______ _____ _____    ______ ____
ROOT
ATOM      1  C   ASP A   1       3.400 -18.630  20.839  0.00  0.00    +0.239 C 
ATOM      2  O   ASP A   1       3.550 -19.863  20.826  0.00  0.00    -0.274 OA
ATOM      3  N   PHE A   2       3.845 -17.831  19.865  0.00  0.00    -0.298 N 
ATOM      4  H   PHE A   2       3.730 -16.803  19.970  0.00  0.00    +0.150 HD
ENDROOT
BRANCH   1   5
ATOM      5  CA  ASP A   1       2.709 -17.942  22.027  0.00  0.00    +0.156 C 
BRANCH   5   6
ATOM      6  N   ASP A   1       3.652 -17.081  22.732  0.00  0.00    -0.238 NA
ATOM      7  H   ASP A   1       3.409 -16.077  22.854  0.00  0.00    +0.142 HD
ENDBRANCH   5   6
BRANCH   5   8
ATOM      8  CB  ASP A   1       1.532 -17.079  21.563  0.00  0.00    +0.140 C 
BRANCH   8   9
ATOM      9  CG  ASP A   1       0.351 -17.879  21.050  0.00  0.00    +0.367 C 
ATOM     10  OD2 ASP A   1       0.326 -19.119  21.209  0.00  0.00    -0.246 OA
ATOM     11  OD1 ASP A   1      -0.565 -17.236  20.480  0.00  0.00    -0.246 OA
ENDBRANCH   8   9
ENDBRANCH   5   8
ENDBRANCH   1   5
BRANCH   3  12
ATOM     12  CA  PHE A   2       4.489 -18.347  18.655  0.00  0.00    +0.141 C 
BRANCH  12  13
ATOM     13  C   PHE A   2       5.794 -19.086  18.960  0.00  0.00    +0.227 C 
ATOM     14  O   PHE A   2       6.051 -20.151  18.399  0.00  0.00    -0.286 OA
ENDBRANCH  12  13
BRANCH  12  15
ATOM     15  CB  PHE A   2       4.792 -17.218  17.652  0.00  0.00    +0.054 C 
BRANCH  15  16
ATOM     16  CG  PHE A   2       3.573 -16.495  17.111  0.00  0.00    -0.020 A 
ATOM     17  CD2 PHE A   2       2.322 -17.109  17.029  0.00  0.00    -0.004 A 
ATOM     18  CE2 PHE A   2       1.216 -16.419  16.507  0.00  0.00    -0.000 A 
ATOM     19  CZ  PHE A   2       1.366 -15.095  16.046  0.00  0.00    -0.000 A 
ATOM     20  CE1 PHE A   2       2.608 -14.482  16.112  0.00  0.00    -0.000 A 
ATOM     21  CD1 PHE A   2       3.703 -15.178  16.640  0.00  0.00    -0.004 A 
ENDBRANCH  15  16
ENDBRANCH  12  15
ENDBRANCH   3  12
TORSDOF 8
REMARK  Name = ../refined-set-2016/3k00/3k00_pocket.pdb
REMARK  256 active torsions:
REMARK  status: ('A' for Active; 'I' for Inactive)
REMARK    1  A    between atoms: _1  and  _3
REMARK    2  A    between atoms: _3  and  _4
REMARK    3  A    between atoms: _3  and  _6
REMARK    4  A    between atoms: _6  and  _7
REMARK    5  A    between atoms: _10  and  _12
REMARK    6  A    between atoms: _12  and  _13
REMARK    7  A    between atoms: _12  and  _15
REMARK    8  A    between atoms: _15  and  _16
REMARK    9  A    between atoms: _19  and  _21
REMARK   10  A    between atoms: _21  and  _22
REMARK   11  A    between atoms: _21  and  _24
REMARK   12  A    between atoms: _24  and  _25
REMARK   13  A    between atoms: _27  and  _29
REMARK   14  A    between atoms: _29  and  _30
REMARK   15  A    between atoms: _29  and  _32
REMARK   16  A    between atoms: _32  and  _33
REMARK   17  A    between atoms: _38  and  _40
REMARK   18  A    between atoms: _40  and  _41
REMARK   19  A    between atoms: _40  and  _43
REMARK   20  A    between atoms: _43  and  _44
REMARK   21  A    between atoms: _44  and  _45
REMARK   22  A    between atoms: _48  and  _50
REMARK   23  A    between atoms: _50  and  _51
REMARK   24  A    between atoms: _54  and  _56
REMARK   25  A    between atoms: _56  and  _57
REMARK   26  A    between atoms: _56  and  _59
REMARK   27  A    between atoms: _59  and  _60
REMARK   28  A    between atoms: _60  and  _61
REMARK   29  A    between atoms: _64  and  _66
REMARK   30  A    between atoms: _66  and  _67
REMARK   31  A    between atoms: _66  and  _69
REMARK   32  A    between atoms: _69  and  _70
REMARK   33  A    between atoms: _70  and  _71
REMARK   34  A    between atoms: _71  and  _72
REMARK   35  A    between atoms: _72  and  _73
REMARK   36  A    between atoms: _77  and  _79
REMARK   37  A    between atoms: _79  and  _80
REMARK   38  A    between atoms: _79  and  _82
REMARK   39  A    between atoms: _82  and  _83
REMARK   40  A    between atoms: _88  and  _89
REMARK   41  A    between atoms: _91  and  _93
REMARK   42  A    between atoms: _93  and  _94
REMARK   43  A    between atoms: _93  and  _96
REMARK   44  A    between atoms: _96  and  _97
REMARK   45  A    between atoms: _102  and  _104
REMARK   46  A    between atoms: _104  and  _105
REMARK   47  A    between atoms: _104  and  _107
REMARK   48  A    between atoms: _111  and  _112
REMARK   49  A    between atoms: _117  and  _119
REMARK   50  A    between atoms: _119  and  _120
REMARK   51  A    between atoms: _119  and  _122
REMARK   52  A    between atoms: _122  and  _123
REMARK   53  A    between atoms: _129  and  _131
REMARK   54  A    between atoms: _131  and  _132
REMARK   55  A    between atoms: _134  and  _136
REMARK   56  A    between atoms: _136  and  _137
REMARK   57  A    between atoms: _136  and  _139
REMARK   58  A    between atoms: _139  and  _140
REMARK   59  A    between atoms: _140  and  _141
REMARK   60  A    between atoms: _144  and  _146
REMARK   61  A    between atoms: _146  and  _147
REMARK   62  A    between atoms: _150  and  _152
REMARK   63  A    between atoms: _152  and  _153
REMARK   64  A    between atoms: _152  and  _155
REMARK   65  A    between atoms: _155  and  _156
REMARK   66  A    between atoms: _161  and  _163
REMARK   67  A    between atoms: _163  and  _164
REMARK   68  A    between atoms: _167  and  _169
REMARK   69  A    between atoms: _169  and  _170
REMARK   70  A    between atoms: _169  and  _172
REMARK   71  A    between atoms: _172  and  _173
REMARK   72  A    between atoms: _173  and  _174
REMARK   73  A    between atoms: _174  and  _175
REMARK   74  A    between atoms: _175  and  _176
REMARK   75  A    between atoms: _180  and  _182
REMARK   76  A    between atoms: _182  and  _183
REMARK   77  A    between atoms: _182  and  _185
REMARK   78  A    between atoms: _185  and  _186
REMARK   79  A    between atoms: _186  and  _187
REMARK   80  A    between atoms: _187  and  _188
REMARK   81  A    between atoms: _188  and  _189
REMARK   82  A    between atoms: _193  and  _195
REMARK   83  A    between atoms: _195  and  _196
REMARK   84  A    between atoms: _195  and  _198
REMARK   85  A    between atoms: _198  and  _199
REMARK   86  A    between atoms: _199  and  _200
REMARK   87  A    between atoms: _200  and  _201
REMARK   88  A    between atoms: _210  and  _212
REMARK   89  A    between atoms: _212  and  _213
REMARK   90  A    between atoms: _212  and  _215
REMARK   91  A    between atoms: _215  and  _216
REMARK   92  A    between atoms: _216  and  _217
REMARK   93  A    between atoms: _220  and  _222
REMARK   94  A    between atoms: _222  and  _223
REMARK   95  A    between atoms: _222  and  _225
REMARK   96  A    between atoms: _228  and  _230
REMARK   97  A    between atoms: _230  and  _231
REMARK   98  A    between atoms: _234  and  _236
REMARK   99  A    between atoms: _236  and  _237
REMARK  100  A    between atoms: _236  and  _239
REMARK  101  A    between atoms: _239  and  _240
REMARK  102  A    between atoms: _250  and  _252
REMARK  103  A    between atoms: _252  and  _253
REMARK  104  A    between atoms: _252  and  _255
REMARK  105  A    between atoms: _258  and  _260
REMARK  106  A    between atoms: _260  and  _261
REMARK  107  A    between atoms: _260  and  _263
REMARK  108  A    between atoms: _263  and  _264
REMARK  109  A    between atoms: _267  and  _269
REMARK  110  A    between atoms: _269  and  _270
REMARK  111  A    between atoms: _269  and  _272
REMARK  112  A    between atoms: _272  and  _273
REMARK  113  A    between atoms: _279  and  _281
REMARK  114  A    between atoms: _281  and  _282
REMARK  115  A    between atoms: _281  and  _284
REMARK  116  A    between atoms: _284  and  _285
REMARK  117  A    between atoms: _285  and  _286
REMARK  118  A    between atoms: _291  and  _293
REMARK  119  A    between atoms: _293  and  _294
REMARK  120  A    between atoms: _293  and  _296
REMARK  121  A    between atoms: _299  and  _301
REMARK  122  A    between atoms: _301  and  _302
REMARK  123  A    between atoms: _301  and  _304
REMARK  124  A    between atoms: _304  and  _305
REMARK  125  A    between atoms: _308  and  _310
REMARK  126  A    between atoms: _310  and  _311
REMARK  127  A    between atoms: _310  and  _313
REMARK  128  A    between atoms: _313  and  _314
REMARK  129  A    between atoms: _317  and  _319
REMARK  130  A    between atoms: _319  and  _320
REMARK  131  A    between atoms: _319  and  _322
REMARK  132  A    between atoms: _322  and  _323
REMARK  133  A    between atoms: _326  and  _328
REMARK  134  A    between atoms: _328  and  _329
REMARK  135  A    between atoms: _328  and  _331
REMARK  136  A    between atoms: _331  and  _332
REMARK  137  A    between atoms: _335  and  _337
REMARK  138  A    between atoms: _337  and  _338
REMARK  139  A    between atoms: _337  and  _340
REMARK  140  A    between atoms: _340  and  _341
REMARK  141  A    between atoms: _341  and  _342
REMARK  142  A    between atoms: _342  and  _343
REMARK  143  A    between atoms: _352  and  _354
REMARK  144  A    between atoms: _354  and  _355
REMARK  145  A    between atoms: _354  and  _357
REMARK  146  A    between atoms: _357  and  _358
REMARK  147  A    between atoms: _361  and  _363
REMARK  148  A    between atoms: _363  and  _364
REMARK  149  A    between atoms: _363  and  _366
REMARK  150  A    between atoms: _366  and  _367
REMARK  151  A    between atoms: _371  and  _372
REMARK  152  A    between atoms: _377  and  _379
REMARK  153  A    between atoms: _379  and  _380
REMARK  154  A    between atoms: _379  and  _382
REMARK  155  A    between atoms: _382  and  _383
REMARK  156  A    between atoms: _388  and  _389
REMARK  157  A    between atoms: _391  and  _393
REMARK  158  A    between atoms: _393  and  _394
REMARK  159  A    between atoms: _393  and  _396
REMARK  160  A    between atoms: _396  and  _397
REMARK  161  A    between atoms: _407  and  _409
REMARK  162  A    between atoms: _409  and  _410
REMARK  163  A    between atoms: _409  and  _412
REMARK  164  A    between atoms: _412  and  _413
REMARK  165  A    between atoms: _419  and  _421
REMARK  166  A    between atoms: _421  and  _422
REMARK  167  A    between atoms: _421  and  _424
REMARK  168  A    between atoms: _424  and  _425
REMARK  169  A    between atoms: _428  and  _430
REMARK  170  A    between atoms: _430  and  _431
REMARK  171  A    between atoms: _430  and  _433
REMARK  172  A    between atoms: _433  and  _434
REMARK  173  A    between atoms: _444  and  _446
REMARK  174  A    between atoms: _446  and  _447
REMARK  175  A    between atoms: _446  and  _449
REMARK  176  A    between atoms: _449  and  _450
REMARK  177  A    between atoms: _450  and  _451
REMARK  178  A    between atoms: _453  and  _455
REMARK  179  A    between atoms: _455  and  _456
REMARK  180  A    between atoms: _455  and  _458
REMARK  181  A    between atoms: _458  and  _459
REMARK  182  A    between atoms: _464  and  _466
REMARK  183  A    between atoms: _466  and  _467
REMARK  184  A    between atoms: _470  and  _471
REMARK  185  A    between atoms: _476  and  _478
REMARK  186  A    between atoms: _478  and  _479
REMARK  187  A    between atoms: _478  and  _481
REMARK  188  A    between atoms: _481  and  _482
REMARK  189  A    between atoms: _492  and  _494
REMARK  190  A    between atoms: _494  and  _495
REMARK  191  A    between atoms: _499  and  _500
REMARK  192  A    between atoms: _505  and  _507
REMARK  193  A    between atoms: _507  and  _508
REMARK  194  A    between atoms: _507  and  _510
REMARK  195  A    between atoms: _510  and  _511
REMARK  196  A    between atoms: _511  and  _512
REMARK  197  A    between atoms: _517  and  _519
REMARK  198  A    between atoms: _519  and  _520
REMARK  199  A    between atoms: _522  and  _524
REMARK  200  A    between atoms: _524  and  _525
REMARK  201  A    between atoms: _527  and  _529
REMARK  202  A    between atoms: _529  and  _530
REMARK  203  A    between atoms: _529  and  _532
REMARK  204  A    between atoms: _532  and  _533
REMARK  205  A    between atoms: _543  and  _545
REMARK  206  A    between atoms: _545  and  _546
REMARK  207  A    between atoms: _545  and  _548
REMARK  208  A    between atoms: _548  and  _549
REMARK  209  A    between atoms: _552  and  _554
REMARK  210  A    between atoms: _554  and  _555
REMARK  211  A    between atoms: _554  and  _557
REMARK  212  A    between atoms: _557  and  _558
REMARK  213  A    between atoms: _561  and  _563
REMARK  214  A    between atoms: _563  and  _564
REMARK  215  A    between atoms: _563  and  _566
REMARK  216  A    between atoms: _566  and  _567
REMARK  217  A    between atoms: _567  and  _568
REMARK  218  A    between atoms: _568  and  _569
REMARK  219  A    between atoms: _578  and  _580
REMARK  220  A    between atoms: _580  and  _581
REMARK  221  A    between atoms: _580  and  _583
REMARK  222  A    between atoms: _583  and  _584
REMARK  223  A    between atoms: _594  and  _596
REMARK  224  A    between atoms: _596  and  _597
REMARK  225  A    between atoms: _600  and  _602
REMARK  226  A    between atoms: _602  and  _603
REMARK  227  A    between atoms: _602  and  _605
REMARK  228  A    between atoms: _605  and  _606
REMARK  229  A    between atoms: _606  and  _607
REMARK  230  A    between atoms: _610  and  _612
REMARK  231  A    between atoms: _612  and  _613
REMARK  232  A    between atoms: _615  and  _617
REMARK  233  A    between atoms: _617  and  _618
REMARK  234  A    between atoms: _617  and  _620
REMARK  235  A    between atoms: _620  and  _621
REMARK  236  A    between atoms: _626  and  _628
REMARK  237  A    between atoms: _628  and  _629
REMARK  238  A    between atoms: _632  and  _634
REMARK  239  A    between atoms: _634  and  _635
REMARK  240  A    between atoms: _634  and  _637
REMARK  241  A    between atoms: _637  and  _638
REMARK  242  A    between atoms: _641  and  _643
REMARK  243  A    between atoms: _643  and  _644
REMARK  244  A    between atoms: _643  and  _646
REMARK  245  A    between atoms: _646  and  _647
REMARK  246  A    between atoms: _653  and  _655
REMARK  247  A    between atoms: _655  and  _656
REMARK  248  A    between atoms: _655  and  _658
REMARK  249  A    between atoms: _658  and  _659
REMARK  250  A    between atoms: _659  and  _660
REMARK  251  A    between atoms: _663  and  _665
REMARK  252  A    between atoms: _665  and  _666
REMARK  253  A    between atoms: _665  and  _668
REMARK  254  A    between atoms: _668  and  _669
REMARK  255  A    between atoms: _669  and  _670
REMARK  256  A    between atoms: _670  and  _671
REMARK                            x       y       z     vdW  Elec       q    Type
REMARK                         _______ _______ _______ _____ _____    ______ ____
ROOT
ATOM      1  C   ILE A   3       3.213   1.090  23.719  0.00  0.00    +0.241 C 
ATOM      2  N   ASP A   4       2.217   0.548  24.416  0.00  0.00    -0.297 N 
ATOM      3  H   ASP A   4       2.319  -0.408  24.813  0.00  0.00    +0.150 HD
ATOM      4  O   ILE A   3       3.127   2.203  23.226  0.00  0.00    -0.273 OA
ENDROOT
BRANCH   2   5
ATOM      5  CA  ASP A   4       0.984   1.297  24.621  0.00  0.00    +0.160 C 
BRANCH   5   6
ATOM      6  C   ASP A   4       0.279   0.907  25.927  0.00  0.00    +0.241 C 
ATOM      7  O   ASP A   4       0.691  -0.019  26.644  0.00  0.00    -0.273 OA
ATOM      8  N   THR A   5      -0.749   1.679  26.239  0.00  0.00    -0.295 N 
ATOM      9  H   THR A   5      -0.906   2.540  25.678  0.00  0.00    +0.150 HD
BRANCH   8  10
ATOM     10  CA  THR A   5      -1.671   1.388  27.324  0.00  0.00    +0.176 C 
BRANCH  10  11
ATOM     11  C   THR A   5      -3.022   1.999  26.965  0.00  0.00    +0.243 C 
ATOM     12  N   LEU A   6      -4.039   1.749  27.781  0.00  0.00    -0.298 N 
ATOM     13  H   LEU A   6      -3.901   1.091  28.575  0.00  0.00    +0.150 HD
ATOM     14  O   THR A   5      -3.145   2.666  25.948  0.00  0.00    -0.273 OA
BRANCH  12  15
ATOM     15  CA  LEU A   6      -5.359   2.379  27.592  0.00  0.00    +0.137 C 
BRANCH  15  16
ATOM     16  C   LEU A   6      -5.464   3.654  28.406  0.00  0.00    +0.227 C 
ATOM     17  O   LEU A   6      -4.842   3.765  29.470  0.00  0.00    -0.286 OA
ENDBRANCH  15  16
BRANCH  15  18
ATOM     18  CB  LEU A   6      -6.479   1.416  28.025  0.00  0.00    +0.028 C 
BRANCH  18  19
ATOM     19  CG  LEU A   6      -6.624   0.134  27.198  0.00  0.00    +0.002 C 
ATOM     20  CD2 LEU A   6      -7.588  -0.862  27.859  0.00  0.00    +0.000 C 
ATOM     21  CD1 LEU A   6      -7.078   0.481  25.759  0.00  0.00    +0.000 C 
ENDBRANCH  18  19
ENDBRANCH  15  18
ENDBRANCH  12  15
ENDBRANCH  10  11
BRANCH  10  22
ATOM     22  CB  THR A   5      -1.144   1.932  28.679  0.00  0.00    +0.137 C 
ATOM     23  CG2 THR A   5      -1.229   3.474  28.773  0.00  0.00    +0.034 C 
BRANCH  22  24
ATOM     24  OG1 THR A   5      -1.921   1.374  29.747  0.00  0.00    -0.382 OA
ATOM     25  HG1 THR A   5      -1.841   0.387  29.731  0.00  0.00    +0.210 HD
ENDBRANCH  22  24
ENDBRANCH  10  22
ENDBRANCH   8  10
ENDBRANCH   5   6
BRANCH   5  26
ATOM     26  CB  ASP A   4       0.050   1.188  23.387  0.00  0.00    +0.143 C 
BRANCH  26  27
ATOM     27  CG  ASP A   4      -0.276  -0.248  23.013  0.00  0.00    +0.367 C 
ATOM     28  OD2 ASP A   4      -0.590  -1.049  23.923  0.00  0.00    -0.246 OA
ATOM     29  OD1 ASP A   4      -0.239  -0.552  21.798  0.00  0.00    -0.246 OA
ENDBRANCH  26  27
ENDBRANCH   5  26
ENDBRANCH   2   5
BRANCH   1  30
ATOM     30  CA  ILE A   3       4.468   0.241  23.534  0.00  0.00    +0.149 C 
BRANCH  30  32
ATOM     31  C   VAL A   2       5.223  -0.305  21.281  0.00  0.00    +0.241 C 
ATOM     32  N   ILE A   3       5.050   0.589  22.246  0.00  0.00    -0.297 N 
ATOM     33  H   ILE A   3       5.340   1.573  22.076  0.00  0.00    +0.150 HD
ATOM     34  O   VAL A   2       5.048  -1.528  21.419  0.00  0.00    -0.273 OA
BRANCH  31  35
ATOM     35  CA  VAL A   2       5.712   0.283  19.965  0.00  0.00    +0.148 C 
BRANCH  35  37
ATOM     36  C   GLN A   1       7.664  -0.511  18.700  0.00  0.00    +0.238 C 
ATOM     37  N   VAL A   2       6.454  -0.750  19.215  0.00  0.00    -0.297 N 
ATOM     38  H   VAL A   2       6.024  -1.688  19.084  0.00  0.00    +0.150 HD
ATOM     39  O   GLN A   1       8.168   0.608  18.686  0.00  0.00    -0.274 OA
BRANCH  36  40
ATOM     40  CA  GLN A   1       8.397  -1.704  18.063  0.00  0.00    +0.145 C 
BRANCH  40  41
ATOM     41  N   GLN A   1       8.785  -2.692  19.057  0.00  0.00    -0.238 NA
ATOM     42  H   GLN A   1       8.037  -3.178  19.592  0.00  0.00    +0.142 HD
ENDBRANCH  40  41
BRANCH  40  43
ATOM     43  CB  GLN A   1       7.519  -2.359  16.987  0.00  0.00    +0.036 C 
BRANCH  43  44
ATOM     44  CG  GLN A   1       7.176  -1.407  15.849  0.00  0.00    +0.087 C 
BRANCH  44  45
ATOM     45  CD  GLN A   1       6.029  -1.918  15.013  0.00  0.00    +0.219 C 
ATOM     46  OE1 GLN A   1       4.987  -2.297  15.544  0.00  0.00    -0.275 OA
ATOM     47  NE2 GLN A   1       6.209  -1.927  13.675  0.00  0.00    -0.329 N 
ATOM     48 HE21 GLN A   1       7.108  -1.597  13.269  0.00  0.00    +0.145 HD
ATOM     49 HE22 GLN A   1       5.449  -2.264  13.050  0.00  0.00    +0.145 HD
ENDBRANCH  44  45
ENDBRANCH  43  44
ENDBRANCH  40  43
ENDBRANCH  36  40
ENDBRANCH  35  37
BRANCH  35  50
ATOM     50  CB  VAL A   2       4.495   0.862  19.185  0.00  0.00    +0.027 C 
ATOM     51  CG2 VAL A   2       3.458  -0.217  18.841  0.00  0.00    +0.002 C 
ATOM     52  CG1 VAL A   2       4.959   1.600  17.925  0.00  0.00    +0.002 C 
ENDBRANCH  35  50
ENDBRANCH  31  35
ENDBRANCH  30  32
BRANCH  30  53
ATOM     53  CB  ILE A   3       5.483   0.471  24.683  0.00  0.00    +0.027 C 
ATOM     54  CG2 ILE A   3       5.961   1.929  24.731  0.00  0.00    +0.002 C 
BRANCH  53  55
ATOM     55  CG1 ILE A   3       4.914  -0.028  26.022  0.00  0.00    +0.002 C 
ATOM     56  CD1 ILE A   3       5.980  -0.214  27.117  0.00  0.00    +0.000 C 
ENDBRANCH  53  55
ENDBRANCH  30  53
ENDBRANCH   1  30
TORSDOF 24
REMARK  Name = ../refined-set-2016/3k00/3k00_pocket.pdb
REMARK  256 active torsions:
REMARK  status: ('A' for Active; 'I' for Inactive)
REMARK    1  A    between atoms: _1  and  _3
REMARK    2  A    between atoms: _3  and  _4
REMARK    3  A    between atoms: _3  and  _6
REMARK    4  A    between atoms: _6  and  _7
REMARK    5  A    between atoms: _10  and  _12
REMARK    6  A    between atoms: _12  and  _13
REMARK    7  A    between atoms: _12  and  _15
REMARK    8  A    between atoms: _15  and  _16
REMARK    9  A    between atoms: _19  and  _21
REMARK   10  A    between atoms: _21  and  _22
REMARK   11  A    between atoms: _21  and  _24
REMARK   12  A    between atoms: _24  and  _25
REMARK   13  A    between atoms: _27  and  _29
REMARK   14  A    between atoms: _29  and  _30
REMARK   15  A    between atoms: _29  and  _32
REMARK   16  A    between atoms: _32  and  _33
REMARK   17  A    between atoms: _38  and  _40
REMARK   18  A    between atoms: _40  and  _41
REMARK   19  A    between atoms: _40  and  _43
REMARK   20  A    between atoms: _43  and  _44
REMARK   21  A    between atoms: _44  and  _45
REMARK   22  A    between atoms: _48  and  _50
REMARK   23  A    between atoms: _50  and  _51
REMARK   24  A    between atoms: _54  and  _56
REMARK   25  A    between atoms: _56  and  _57
REMARK   26  A    between atoms: _56  and  _59
REMARK   27  A    between atoms: _59  and  _60
REMARK   28  A    between atoms: _60  and  _61
REMARK   29  A    between atoms: _64  and  _66
REMARK   30  A    between atoms: _66  and  _67
REMARK   31  A    between atoms: _66  and  _69
REMARK   32  A    between atoms: _69  and  _70
REMARK   33  A    between atoms: _70  and  _71
REMARK   34  A    between atoms: _71  and  _72
REMARK   35  A    between atoms: _72  and  _73
REMARK   36  A    between atoms: _77  and  _79
REMARK   37  A    between atoms: _79  and  _80
REMARK   38  A    between atoms: _79  and  _82
REMARK   39  A    between atoms: _82  and  _83
REMARK   40  A    between atoms: _88  and  _89
REMARK   41  A    between atoms: _91  and  _93
REMARK   42  A    between atoms: _93  and  _94
REMARK   43  A    between atoms: _93  and  _96
REMARK   44  A    between atoms: _96  and  _97
REMARK   45  A    between atoms: _102  and  _104
REMARK   46  A    between atoms: _104  and  _105
REMARK   47  A    between atoms: _104  and  _107
REMARK   48  A    between atoms: _111  and  _112
REMARK   49  A    between atoms: _117  and  _119
REMARK   50  A    between atoms: _119  and  _120
REMARK   51  A    between atoms: _119  and  _122
REMARK   52  A    between atoms: _122  and  _123
REMARK   53  A    between atoms: _129  and  _131
REMARK   54  A    between atoms: _131  and  _132
REMARK   55  A    between atoms: _134  and  _136
REMARK   56  A    between atoms: _136  and  _137
REMARK   57  A    between atoms: _136  and  _139
REMARK   58  A    between atoms: _139  and  _140
REMARK   59  A    between atoms: _140  and  _141
REMARK   60  A    between atoms: _144  and  _146
REMARK   61  A    between atoms: _146  and  _147
REMARK   62  A    between atoms: _150  and  _152
REMARK   63  A    between atoms: _152  and  _153
REMARK   64  A    between atoms: _152  and  _155
REMARK   65  A    between atoms: _155  and  _156
REMARK   66  A    between atoms: _161  and  _163
REMARK   67  A    between atoms: _163  and  _164
REMARK   68  A    between atoms: _167  and  _169
REMARK   69  A    between atoms: _169  and  _170
REMARK   70  A    between atoms: _169  and  _172
REMARK   71  A    between atoms: _172  and  _173
REMARK   72  A    between atoms: _173  and  _174
REMARK   73  A    between atoms: _174  and  _175
REMARK   74  A    between atoms: _175  and  _176
REMARK   75  A    between atoms: _180  and  _182
REMARK   76  A    between atoms: _182  and  _183
REMARK   77  A    between atoms: _182  and  _185
REMARK   78  A    between atoms: _185  and  _186
REMARK   79  A    between atoms: _186  and  _187
REMARK   80  A    between atoms: _187  and  _188
REMARK   81  A    between atoms: _188  and  _189
REMARK   82  A    between atoms: _193  and  _195
REMARK   83  A    between atoms: _195  and  _196
REMARK   84  A    between atoms: _195  and  _198
REMARK   85  A    between atoms: _198  and  _199
REMARK   86  A    between atoms: _199  and  _200
REMARK   87  A    between atoms: _200  and  _201
REMARK   88  A    between atoms: _210  and  _212
REMARK   89  A    between atoms: _212  and  _213
REMARK   90  A    between atoms: _212  and  _215
REMARK   91  A    between atoms: _215  and  _216
REMARK   92  A    between atoms: _216  and  _217
REMARK   93  A    between atoms: _220  and  _222
REMARK   94  A    between atoms: _222  and  _223
REMARK   95  A    between atoms: _222  and  _225
REMARK   96  A    between atoms: _228  and  _230
REMARK   97  A    between atoms: _230  and  _231
REMARK   98  A    between atoms: _234  and  _236
REMARK   99  A    between atoms: _236  and  _237
REMARK  100  A    between atoms: _236  and  _239
REMARK  101  A    between atoms: _239  and  _240
REMARK  102  A    between atoms: _250  and  _252
REMARK  103  A    between atoms: _252  and  _253
REMARK  104  A    between atoms: _252  and  _255
REMARK  105  A    between atoms: _258  and  _260
REMARK  106  A    between atoms: _260  and  _261
REMARK  107  A    between atoms: _260  and  _263
REMARK  108  A    between atoms: _263  and  _264
REMARK  109  A    between atoms: _267  and  _269
REMARK  110  A    between atoms: _269  and  _270
REMARK  111  A    between atoms: _269  and  _272
REMARK  112  A    between atoms: _272  and  _273
REMARK  113  A    between atoms: _279  and  _281
REMARK  114  A    between atoms: _281  and  _282
REMARK  115  A    between atoms: _281  and  _284
REMARK  116  A    between atoms: _284  and  _285
REMARK  117  A    between atoms: _285  and  _286
REMARK  118  A    between atoms: _291  and  _293
REMARK  119  A    between atoms: _293  and  _294
REMARK  120  A    between atoms: _293  and  _296
REMARK  121  A    between atoms: _299  and  _301
REMARK  122  A    between atoms: _301  and  _302
REMARK  123  A    between atoms: _301  and  _304
REMARK  124  A    between atoms: _304  and  _305
REMARK  125  A    between atoms: _308  and  _310
REMARK  126  A    between atoms: _310  and  _311
REMARK  127  A    between atoms: _310  and  _313
REMARK  128  A    between atoms: _313  and  _314
REMARK  129  A    between atoms: _317  and  _319
REMARK  130  A    between atoms: _319  and  _320
REMARK  131  A    between atoms: _319  and  _322
REMARK  132  A    between atoms: _322  and  _323
REMARK  133  A    between atoms: _326  and  _328
REMARK  134  A    between atoms: _328  and  _329
REMARK  135  A    between atoms: _328  and  _331
REMARK  136  A    between atoms: _331  and  _332
REMARK  137  A    between atoms: _335  and  _337
REMARK  138  A    between atoms: _337  and  _338
REMARK  139  A    between atoms: _337  and  _340
REMARK  140  A    between atoms: _340  and  _341
REMARK  141  A    between atoms: _341  and  _342
REMARK  142  A    between atoms: _342  and  _343
REMARK  143  A    between atoms: _352  and  _354
REMARK  144  A    between atoms: _354  and  _355
REMARK  145  A    between atoms: _354  and  _357
REMARK  146  A    between atoms: _357  and  _358
REMARK  147  A    between atoms: _361  and  _363
REMARK  148  A    between atoms: _363  and  _364
REMARK  149  A    between atoms: _363  and  _366
REMARK  150  A    between atoms: _366  and  _367
REMARK  151  A    between atoms: _371  and  _372
REMARK  152  A    between atoms: _377  and  _379
REMARK  153  A    between atoms: _379  and  _380
REMARK  154  A    between atoms: _379  and  _382
REMARK  155  A    between atoms: _382  and  _383
REMARK  156  A    between atoms: _388  and  _389
REMARK  157  A    between atoms: _391  and  _393
REMARK  158  A    between atoms: _393  and  _394
REMARK  159  A    between atoms: _393  and  _396
REMARK  160  A    between atoms: _396  and  _397
REMARK  161  A    between atoms: _407  and  _409
REMARK  162  A    between atoms: _409  and  _410
REMARK  163  A    between atoms: _409  and  _412
REMARK  164  A    between atoms: _412  and  _413
REMARK  165  A    between atoms: _419  and  _421
REMARK  166  A    between atoms: _421  and  _422
REMARK  167  A    between atoms: _421  and  _424
REMARK  168  A    between atoms: _424  and  _425
REMARK  169  A    between atoms: _428  and  _430
REMARK  170  A    between atoms: _430  and  _431
REMARK  171  A    between atoms: _430  and  _433
REMARK  172  A    between atoms: _433  and  _434
REMARK  173  A    between atoms: _444  and  _446
REMARK  174  A    between atoms: _446  and  _447
REMARK  175  A    between atoms: _446  and  _449
REMARK  176  A    between atoms: _449  and  _450
REMARK  177  A    between atoms: _450  and  _451
REMARK  178  A    between atoms: _453  and  _455
REMARK  179  A    between atoms: _455  and  _456
REMARK  180  A    between atoms: _455  and  _458
REMARK  181  A    between atoms: _458  and  _459
REMARK  182  A    between atoms: _464  and  _466
REMARK  183  A    between atoms: _466  and  _467
REMARK  184  A    between atoms: _470  and  _471
REMARK  185  A    between atoms: _476  and  _478
REMARK  186  A    between atoms: _478  and  _479
REMARK  187  A    between atoms: _478  and  _481
REMARK  188  A    between atoms: _481  and  _482
REMARK  189  A    between atoms: _492  and  _494
REMARK  190  A    between atoms: _494  and  _495
REMARK  191  A    between atoms: _499  and  _500
REMARK  192  A    between atoms: _505  and  _507
REMARK  193  A    between atoms: _507  and  _508
REMARK  194  A    between atoms: _507  and  _510
REMARK  195  A    between atoms: _510  and  _511
REMARK  196  A    between atoms: _511  and  _512
REMARK  197  A    between atoms: _517  and  _519
REMARK  198  A    between atoms: _519  and  _520
REMARK  199  A    between atoms: _522  and  _524
REMARK  200  A    between atoms: _524  and  _525
REMARK  201  A    between atoms: _527  and  _529
REMARK  202  A    between atoms: _529  and  _530
REMARK  203  A    between atoms: _529  and  _532
REMARK  204  A    between atoms: _532  and  _533
REMARK  205  A    between atoms: _543  and  _545
REMARK  206  A    between atoms: _545  and  _546
REMARK  207  A    between atoms: _545  and  _548
REMARK  208  A    between atoms: _548  and  _549
REMARK  209  A    between atoms: _552  and  _554
REMARK  210  A    between atoms: _554  and  _555
REMARK  211  A    between atoms: _554  and  _557
REMARK  212  A    between atoms: _557  and  _558
REMARK  213  A    between atoms: _561  and  _563
REMARK  214  A    between atoms: _563  and  _564
REMARK  215  A    between atoms: _563  and  _566
REMARK  216  A    between atoms: _566  and  _567
REMARK  217  A    between atoms: _567  and  _568
REMARK  218  A    between atoms: _568  and  _569
REMARK  219  A    between atoms: _578  and  _580
REMARK  220  A    between atoms: _580  and  _581
REMARK  221  A    between atoms: _580  and  _583
REMARK  222  A    between atoms: _583  and  _584
REMARK  223  A    between atoms: _594  and  _596
REMARK  224  A    between atoms: _596  and  _597
REMARK  225  A    between atoms: _600  and  _602
REMARK  226  A    between atoms: _602  and  _603
REMARK  227  A    between atoms: _602  and  _605
REMARK  228  A    between atoms: _605  and  _606
REMARK  229  A    between atoms: _606  and  _607
REMARK  230  A    between atoms: _610  and  _612
REMARK  231  A    between atoms: _612  and  _613
REMARK  232  A    between atoms: _615  and  _617
REMARK  233  A    between atoms: _617  and  _618
REMARK  234  A    between atoms: _617  and  _620
REMARK  235  A    between atoms: _620  and  _621
REMARK  236  A    between atoms: _626  and  _628
REMARK  237  A    between atoms: _628  and  _629
REMARK  238  A    between atoms: _632  and  _634
REMARK  239  A    between atoms: _634  and  _635
REMARK  240  A    between atoms: _634  and  _637
REMARK  241  A    between atoms: _637  and  _638
REMARK  242  A    between atoms: _641  and  _643
REMARK  243  A    between atoms: _643  and  _644
REMARK  244  A    between atoms: _643  and  _646
REMARK  245  A    between atoms: _646  and  _647
REMARK  246  A    between atoms: _653  and  _655
REMARK  247  A    between atoms: _655  and  _656
REMARK  248  A    between atoms: _655  and  _658
REMARK  249  A    between atoms: _658  and  _659
REMARK  250  A    between atoms: _659  and  _660
REMARK  251  A    between atoms: _663  and  _665
REMARK  252  A    between atoms: _665  and  _666
REMARK  253  A    between atoms: _665  and  _668
REMARK  254  A    between atoms: _668  and  _669
REMARK  255  A    between atoms: _669  and  _670
REMARK  256  A    between atoms: _670  and  _671
REMARK                            x       y       z     vdW  Elec       q    Type
REMARK                         _______ _______ _______ _____ _____    ______ ____
ROOT
ATOM      1  NE  ARG A   1     -13.825  -3.206  21.132  0.00  0.00    -0.265 N 
ATOM      2  HE  ARG A   1     -14.587  -3.887  20.940  0.00  0.00    +0.259 HD
ATOM      3  CZ  ARG A   1     -12.682  -3.326  20.459  0.00  0.00    +0.342 C 
ATOM      4  NH2 ARG A   1     -11.673  -2.493  20.705  0.00  0.00    -0.292 N 
ATOM      5 HH21 ARG A   1     -11.777  -1.748  21.423  0.00  0.00    +0.255 HD
ATOM      6 HH22 ARG A   1     -10.781  -2.587  20.179  0.00  0.00    +0.255 HD
ATOM      7  NH1 ARG A   1     -12.538  -4.273  19.547  0.00  0.00    -0.292 N 
ATOM      8 HH11 ARG A   1     -13.320  -4.930  19.352  0.00  0.00    +0.255 HD
ATOM      9 HH12 ARG A   1     -11.643  -4.361  19.025  0.00  0.00    +0.255 HD
ENDROOT
BRANCH   1  10
ATOM     10  CD  ARG A   1     -14.061  -2.155  22.135  0.00  0.00    +0.174 C 
BRANCH  10  11
ATOM     11  CG  ARG A   1     -14.367  -2.654  23.488  0.00  0.00    +0.045 C 
BRANCH  11  12
ATOM     12  CB  ARG A   1     -14.739  -1.495  24.420  0.00  0.00    +0.029 C 
BRANCH  12  13
ATOM     13  CA  ARG A   1     -16.210  -1.460  24.844  0.00  0.00    +0.133 C 
BRANCH  13  14
ATOM     14  N   ARG A   1     -16.432  -0.381  25.828  0.00  0.00    -0.239 NA
ATOM     15  H   ARG A   1     -15.619   0.149  26.203  0.00  0.00    +0.142 HD
ENDBRANCH  13  14
BRANCH  13  16
ATOM     16  C   ARG A   1     -16.601  -2.783  25.512  0.00  0.00    +0.224 C 
ATOM     17  O   ARG A   1     -15.968  -3.190  26.474  0.00  0.00    -0.287 OA
ENDBRANCH  13  16
ENDBRANCH  12  13
ENDBRANCH  11  12
ENDBRANCH  10  11
ENDBRANCH   1  10
TORSDOF 6
REMARK  Name = ../refined-set-2016/3k00/3k00_pocket.pdb
REMARK  256 active torsions:
REMARK  status: ('A' for Active; 'I' for Inactive)
REMARK    1  A    between atoms: _1  and  _3
REMARK    2  A    between atoms: _3  and  _4
REMARK    3  A    between atoms: _3  and  _6
REMARK    4  A    between atoms: _6  and  _7
REMARK    5  A    between atoms: _10  and  _12
REMARK    6  A    between atoms: _12  and  _13
REMARK    7  A    between atoms: _12  and  _15
REMARK    8  A    between atoms: _15  and  _16
REMARK    9  A    between atoms: _19  and  _21
REMARK   10  A    between atoms: _21  and  _22
REMARK   11  A    between atoms: _21  and  _24
REMARK   12  A    between atoms: _24  and  _25
REMARK   13  A    between atoms: _27  and  _29
REMARK   14  A    between atoms: _29  and  _30
REMARK   15  A    between atoms: _29  and  _32
REMARK   16  A    between atoms: _32  and  _33
REMARK   17  A    between atoms: _38  and  _40
REMARK   18  A    between atoms: _40  and  _41
REMARK   19  A    between atoms: _40  and  _43
REMARK   20  A    between atoms: _43  and  _44
REMARK   21  A    between atoms: _44  and  _45
REMARK   22  A    between atoms: _48  and  _50
REMARK   23  A    between atoms: _50  and  _51
REMARK   24  A    between atoms: _54  and  _56
REMARK   25  A    between atoms: _56  and  _57
REMARK   26  A    between atoms: _56  and  _59
REMARK   27  A    between atoms: _59  and  _60
REMARK   28  A    between atoms: _60  and  _61
REMARK   29  A    between atoms: _64  and  _66
REMARK   30  A    between atoms: _66  and  _67
REMARK   31  A    between atoms: _66  and  _69
REMARK   32  A    between atoms: _69  and  _70
REMARK   33  A    between atoms: _70  and  _71
REMARK   34  A    between atoms: _71  and  _72
REMARK   35  A    between atoms: _72  and  _73
REMARK   36  A    between atoms: _77  and  _79
REMARK   37  A    between atoms: _79  and  _80
REMARK   38  A    between atoms: _79  and  _82
REMARK   39  A    between atoms: _82  and  _83
REMARK   40  A    between atoms: _88  and  _89
REMARK   41  A    between atoms: _91  and  _93
REMARK   42  A    between atoms: _93  and  _94
REMARK   43  A    between atoms: _93  and  _96
REMARK   44  A    between atoms: _96  and  _97
REMARK   45  A    between atoms: _102  and  _104
REMARK   46  A    between atoms: _104  and  _105
REMARK   47  A    between atoms: _104  and  _107
REMARK   48  A    between atoms: _111  and  _112
REMARK   49  A    between atoms: _117  and  _119
REMARK   50  A    between atoms: _119  and  _120
REMARK   51  A    between atoms: _119  and  _122
REMARK   52  A    between atoms: _122  and  _123
REMARK   53  A    between atoms: _129  and  _131
REMARK   54  A    between atoms: _131  and  _132
REMARK   55  A    between atoms: _134  and  _136
REMARK   56  A    between atoms: _136  and  _137
REMARK   57  A    between atoms: _136  and  _139
REMARK   58  A    between atoms: _139  and  _140
REMARK   59  A    between atoms: _140  and  _141
REMARK   60  A    between atoms: _144  and  _146
REMARK   61  A    between atoms: _146  and  _147
REMARK   62  A    between atoms: _150  and  _152
REMARK   63  A    between atoms: _152  and  _153
REMARK   64  A    between atoms: _152  and  _155
REMARK   65  A    between atoms: _155  and  _156
REMARK   66  A    between atoms: _161  and  _163
REMARK   67  A    between atoms: _163  and  _164
REMARK   68  A    between atoms: _167  and  _169
REMARK   69  A    between atoms: _169  and  _170
REMARK   70  A    between atoms: _169  and  _172
REMARK   71  A    between atoms: _172  and  _173
REMARK   72  A    between atoms: _173  and  _174
REMARK   73  A    between atoms: _174  and  _175
REMARK   74  A    between atoms: _175  and  _176
REMARK   75  A    between atoms: _180  and  _182
REMARK   76  A    between atoms: _182  and  _183
REMARK   77  A    between atoms: _182  and  _185
REMARK   78  A    between atoms: _185  and  _186
REMARK   79  A    between atoms: _186  and  _187
REMARK   80  A    between atoms: _187  and  _188
REMARK   81  A    between atoms: _188  and  _189
REMARK   82  A    between atoms: _193  and  _195
REMARK   83  A    between atoms: _195  and  _196
REMARK   84  A    between atoms: _195  and  _198
REMARK   85  A    between atoms: _198  and  _199
REMARK   86  A    between atoms: _199  and  _200
REMARK   87  A    between atoms: _200  and  _201
REMARK   88  A    between atoms: _210  and  _212
REMARK   89  A    between atoms: _212  and  _213
REMARK   90  A    between atoms: _212  and  _215
REMARK   91  A    between atoms: _215  and  _216
REMARK   92  A    between atoms: _216  and  _217
REMARK   93  A    between atoms: _220  and  _222
REMARK   94  A    between atoms: _222  and  _223
REMARK   95  A    between atoms: _222  and  _225
REMARK   96  A    between atoms: _228  and  _230
REMARK   97  A    between atoms: _230  and  _231
REMARK   98  A    between atoms: _234  and  _236
REMARK   99  A    between atoms: _236  and  _237
REMARK  100  A    between atoms: _236  and  _239
REMARK  101  A    between atoms: _239  and  _240
REMARK  102  A    between atoms: _250  and  _252
REMARK  103  A    between atoms: _252  and  _253
REMARK  104  A    between atoms: _252  and  _255
REMARK  105  A    between atoms: _258  and  _260
REMARK  106  A    between atoms: _260  and  _261
REMARK  107  A    between atoms: _260  and  _263
REMARK  108  A    between atoms: _263  and  _264
REMARK  109  A    between atoms: _267  and  _269
REMARK  110  A    between atoms: _269  and  _270
REMARK  111  A    between atoms: _269  and  _272
REMARK  112  A    between atoms: _272  and  _273
REMARK  113  A    between atoms: _279  and  _281
REMARK  114  A    between atoms: _281  and  _282
REMARK  115  A    between atoms: _281  and  _284
REMARK  116  A    between atoms: _284  and  _285
REMARK  117  A    between atoms: _285  and  _286
REMARK  118  A    between atoms: _291  and  _293
REMARK  119  A    between atoms: _293  and  _294
REMARK  120  A    between atoms: _293  and  _296
REMARK  121  A    between atoms: _299  and  _301
REMARK  122  A    between atoms: _301  and  _302
REMARK  123  A    between atoms: _301  and  _304
REMARK  124  A    between atoms: _304  and  _305
REMARK  125  A    between atoms: _308  and  _310
REMARK  126  A    between atoms: _310  and  _311
REMARK  127  A    between atoms: _310  and  _313
REMARK  128  A    between atoms: _313  and  _314
REMARK  129  A    between atoms: _317  and  _319
REMARK  130  A    between atoms: _319  and  _320
REMARK  131  A    between atoms: _319  and  _322
REMARK  132  A    between atoms: _322  and  _323
REMARK  133  A    between atoms: _326  and  _328
REMARK  134  A    between atoms: _328  and  _329
REMARK  135  A    between atoms: _328  and  _331
REMARK  136  A    between atoms: _331  and  _332
REMARK  137  A    between atoms: _335  and  _337
REMARK  138  A    between atoms: _337  and  _338
REMARK  139  A    between atoms: _337  and  _340
REMARK  140  A    between atoms: _340  and  _341
REMARK  141  A    between atoms: _341  and  _342
REMARK  142  A    between atoms: _342  and  _343
REMARK  143  A    between atoms: _352  and  _354
REMARK  144  A    between atoms: _354  and  _355
REMARK  145  A    between atoms: _354  and  _357
REMARK  146  A    between atoms: _357  and  _358
REMARK  147  A    between atoms: _361  and  _363
REMARK  148  A    between atoms: _363  and  _364
REMARK  149  A    between atoms: _363  and  _366
REMARK  150  A    between atoms: _366  and  _367
REMARK  151  A    between atoms: _371  and  _372
REMARK  152  A    between atoms: _377  and  _379
REMARK  153  A    between atoms: _379  and  _380
REMARK  154  A    between atoms: _379  and  _382
REMARK  155  A    between atoms: _382  and  _383
REMARK  156  A    between atoms: _388  and  _389
REMARK  157  A    between atoms: _391  and  _393
REMARK  158  A    between atoms: _393  and  _394
REMARK  159  A    between atoms: _393  and  _396
REMARK  160  A    between atoms: _396  and  _397
REMARK  161  A    between atoms: _407  and  _409
REMARK  162  A    between atoms: _409  and  _410
REMARK  163  A    between atoms: _409  and  _412
REMARK  164  A    between atoms: _412  and  _413
REMARK  165  A    between atoms: _419  and  _421
REMARK  166  A    between atoms: _421  and  _422
REMARK  167  A    between atoms: _421  and  _424
REMARK  168  A    between atoms: _424  and  _425
REMARK  169  A    between atoms: _428  and  _430
REMARK  170  A    between atoms: _430  and  _431
REMARK  171  A    between atoms: _430  and  _433
REMARK  172  A    between atoms: _433  and  _434
REMARK  173  A    between atoms: _444  and  _446
REMARK  174  A    between atoms: _446  and  _447
REMARK  175  A    between atoms: _446  and  _449
REMARK  176  A    between atoms: _449  and  _450
REMARK  177  A    between atoms: _450  and  _451
REMARK  178  A    between atoms: _453  and  _455
REMARK  179  A    between atoms: _455  and  _456
REMARK  180  A    between atoms: _455  and  _458
REMARK  181  A    between atoms: _458  and  _459
REMARK  182  A    between atoms: _464  and  _466
REMARK  183  A    between atoms: _466  and  _467
REMARK  184  A    between atoms: _470  and  _471
REMARK  185  A    between atoms: _476  and  _478
REMARK  186  A    between atoms: _478  and  _479
REMARK  187  A    between atoms: _478  and  _481
REMARK  188  A    between atoms: _481  and  _482
REMARK  189  A    between atoms: _492  and  _494
REMARK  190  A    between atoms: _494  and  _495
REMARK  191  A    between atoms: _499  and  _500
REMARK  192  A    between atoms: _505  and  _507
REMARK  193  A    between atoms: _507  and  _508
REMARK  194  A    between atoms: _507  and  _510
REMARK  195  A    between atoms: _510  and  _511
REMARK  196  A    between atoms: _511  and  _512
REMARK  197  A    between atoms: _517  and  _519
REMARK  198  A    between atoms: _519  and  _520
REMARK  199  A    between atoms: _522  and  _524
REMARK  200  A    between atoms: _524  and  _525
REMARK  201  A    between atoms: _527  and  _529
REMARK  202  A    between atoms: _529  and  _530
REMARK  203  A    between atoms: _529  and  _532
REMARK  204  A    between atoms: _532  and  _533
REMARK  205  A    between atoms: _543  and  _545
REMARK  206  A    between atoms: _545  and  _546
REMARK  207  A    between atoms: _545  and  _548
REMARK  208  A    between atoms: _548  and  _549
REMARK  209  A    between atoms: _552  and  _554
REMARK  210  A    between atoms: _554  and  _555
REMARK  211  A    between atoms: _554  and  _557
REMARK  212  A    between atoms: _557  and  _558
REMARK  213  A    between atoms: _561  and  _563
REMARK  214  A    between atoms: _563  and  _564
REMARK  215  A    between atoms: _563  and  _566
REMARK  216  A    between atoms: _566  and  _567
REMARK  217  A    between atoms: _567  and  _568
REMARK  218  A    between atoms: _568  and  _569
REMARK  219  A    between atoms: _578  and  _580
REMARK  220  A    between atoms: _580  and  _581
REMARK  221  A    between atoms: _580  and  _583
REMARK  222  A    between atoms: _583  and  _584
REMARK  223  A    between atoms: _594  and  _596
REMARK  224  A    between atoms: _596  and  _597
REMARK  225  A    between atoms: _600  and  _602
REMARK  226  A    between atoms: _602  and  _603
REMARK  227  A    between atoms: _602  and  _605
REMARK  228  A    between atoms: _605  and  _606
REMARK  229  A    between atoms: _606  and  _607
REMARK  230  A    between atoms: _610  and  _612
REMARK  231  A    between atoms: _612  and  _613
REMARK  232  A    between atoms: _615  and  _617
REMARK  233  A    between atoms: _617  and  _618
REMARK  234  A    between atoms: _617  and  _620
REMARK  235  A    between atoms: _620  and  _621
REMARK  236  A    between atoms: _626  and  _628
REMARK  237  A    between atoms: _628  and  _629
REMARK  238  A    between atoms: _632  and  _634
REMARK  239  A    between atoms: _634  and  _635
REMARK  240  A    between atoms: _634  and  _637
REMARK  241  A    between atoms: _637  and  _638
REMARK  242  A    between atoms: _641  and  _643
REMARK  243  A    between atoms: _643  and  _644
REMARK  244  A    between atoms: _643  and  _646
REMARK  245  A    between atoms: _646  and  _647
REMARK  246  A    between atoms: _653  and  _655
REMARK  247  A    between atoms: _655  and  _656
REMARK  248  A    between atoms: _655  and  _658
REMARK  249  A    between atoms: _658  and  _659
REMARK  250  A    between atoms: _659  and  _660
REMARK  251  A    between atoms: _663  and  _665
REMARK  252  A    between atoms: _665  and  _666
REMARK  253  A    between atoms: _665  and  _668
REMARK  254  A    between atoms: _668  and  _669
REMARK  255  A    between atoms: _669  and  _670
REMARK  256  A    between atoms: _670  and  _671
REMARK                            x       y       z     vdW  Elec       q    Type
REMARK                         _______ _______ _______ _____ _____    ______ ____
ROOT
ATOM      1  C   TYR A   4      -9.266  -4.959  27.907  0.00  0.00    +0.241 C 
ATOM      2  O   TYR A   4      -8.648  -4.463  28.864  0.00  0.00    -0.273 OA
ATOM      3  N   TRP A   5     -10.462  -4.540  27.501  0.00  0.00    -0.297 N 
ATOM      4  H   TRP A   5     -10.939  -5.038  26.722  0.00  0.00    +0.150 HD
ENDROOT
BRANCH   3   5
ATOM      5  CA  TRP A   5     -11.123  -3.385  28.133  0.00  0.00    +0.153 C 
BRANCH   5   6
ATOM      6  C   TRP A   5     -11.658  -3.677  29.548  0.00  0.00    +0.241 C 
ATOM      7  O   TRP A   5     -12.071  -2.765  30.279  0.00  0.00    -0.273 OA
ATOM      8  N   PHE A   6     -11.626  -4.936  29.954  0.00  0.00    -0.297 N 
ATOM      9  H   PHE A   6     -11.320  -5.675  29.290  0.00  0.00    +0.150 HD
BRANCH   8  10
ATOM     10  CA  PHE A   6     -12.011  -5.315  31.315  0.00  0.00    +0.153 C 
BRANCH  10  11
ATOM     11  C   PHE A   6     -10.895  -4.920  32.273  0.00  0.00    +0.241 C 
ATOM     12  O   PHE A   6     -11.150  -4.648  33.450  0.00  0.00    -0.273 OA
ATOM     13  N   LEU A   7      -9.654  -4.921  31.780  0.00  0.00    -0.298 N 
ATOM     14  H   LEU A   7      -9.492  -5.001  30.756  0.00  0.00    +0.150 HD
BRANCH  13  15
ATOM     15  CA  LEU A   7      -8.520  -4.807  32.709  0.00  0.00    +0.137 C 
BRANCH  15  16
ATOM     16  C   LEU A   7      -8.494  -3.524  33.561  0.00  0.00    +0.227 C 
ATOM     17  O   LEU A   7      -8.283  -3.606  34.766  0.00  0.00    -0.286 OA
ENDBRANCH  15  16
BRANCH  15  18
ATOM     18  CB  LEU A   7      -7.186  -5.070  32.019  0.00  0.00    +0.028 C 
BRANCH  18  19
ATOM     19  CG  LEU A   7      -7.073  -6.473  31.420  0.00  0.00    +0.002 C 
ATOM     20  CD2 LEU A   7      -7.195  -7.525  32.500  0.00  0.00    +0.000 C 
ATOM     21  CD1 LEU A   7      -5.745  -6.630  30.722  0.00  0.00    +0.000 C 
ENDBRANCH  18  19
ENDBRANCH  15  18
ENDBRANCH  13  15
ENDBRANCH  10  11
BRANCH  10  22
ATOM     22  CB  PHE A   6     -12.216  -6.835  31.386  0.00  0.00    +0.055 C 
BRANCH  22  23
ATOM     23  CG  PHE A   6     -12.657  -7.337  32.743  0.00  0.00    -0.020 A 
ATOM     24  CD2 PHE A   6     -11.865  -8.248  33.439  0.00  0.00    -0.004 A 
ATOM     25  CE2 PHE A   6     -12.264  -8.737  34.709  0.00  0.00    -0.000 A 
ATOM     26  CZ  PHE A   6     -13.469  -8.307  35.247  0.00  0.00    -0.000 A 
ATOM     27  CE1 PHE A   6     -14.265  -7.402  34.552  0.00  0.00    -0.000 A 
ATOM     28  CD1 PHE A   6     -13.862  -6.910  33.306  0.00  0.00    -0.004 A 
ENDBRANCH  22  23
ENDBRANCH  10  22
ENDBRANCH   8  10
ENDBRANCH   5   6
BRANCH   5  29
ATOM     29  CB  TRP A   5     -12.230  -2.836  27.236  0.00  0.00    +0.057 C 
BRANCH  29  30
ATOM     30  CG  TRP A   5     -11.774  -1.794  26.254  0.00  0.00    -0.002 A 
ATOM     31  CD1 TRP A   5     -12.076  -0.467  26.309  0.00  0.00    +0.068 A 
ATOM     32  NE1 TRP A   5     -11.498   0.195  25.264  0.00  0.00    -0.352 N 
ATOM     33  HE1 TRP A   5     -11.573   1.217  25.089  0.00  0.00    +0.166 HD
ATOM     34  CE2 TRP A   5     -10.805  -0.690  24.481  0.00  0.00    +0.056 A 
ATOM     35  CZ2 TRP A   5     -10.049  -0.479  23.303  0.00  0.00    +0.017 A 
ATOM     36  CH2 TRP A   5      -9.456  -1.580  22.725  0.00  0.00    +0.001 A 
ATOM     37  CZ3 TRP A   5      -9.577  -2.873  23.302  0.00  0.00    +0.000 A 
ATOM     38  CE3 TRP A   5     -10.327  -3.078  24.469  0.00  0.00    +0.001 A 
ATOM     39  CD2 TRP A   5     -10.946  -1.969  25.079  0.00  0.00    +0.013 A 
ENDBRANCH  29  30
ENDBRANCH   5  29
ENDBRANCH   3   5
BRANCH   1  40
ATOM     40  CA  TYR A   4      -8.670  -6.146  27.137  0.00  0.00    +0.153 C 
BRANCH  40  43
ATOM     41  C   PRO A   3     -10.565  -7.592  27.568  0.00  0.00    +0.241 C 
ATOM     42  O   PRO A   3     -10.435  -7.458  28.788  0.00  0.00    -0.273 OA
ATOM     43  N   TYR A   4      -9.751  -7.017  26.684  0.00  0.00    -0.297 N 
ATOM     44  H   TYR A   4      -9.886  -7.189  25.667  0.00  0.00    +0.150 HD
BRANCH  41  48
ATOM     45  C   ASP A   2     -12.532  -7.036  25.171  0.00  0.00    +0.244 C 
ATOM     46  O   ASP A   2     -12.652  -6.045  25.895  0.00  0.00    -0.273 OA
ATOM     47  N   PRO A   3     -12.023  -8.194  25.617  0.00  0.00    -0.272 N 
ATOM     48  CA  PRO A   3     -11.704  -8.452  27.019  0.00  0.00    +0.152 C 
ATOM     49  CB  PRO A   3     -11.295  -9.955  27.026  0.00  0.00    +0.031 C 
ATOM     50  CG  PRO A   3     -10.754 -10.168  25.634  0.00  0.00    +0.024 C 
ATOM     51  CD  PRO A   3     -11.700  -9.364  24.766  0.00  0.00    +0.094 C 
BRANCH  45  52
ATOM     52  CA  ASP A   2     -12.978  -6.980  23.704  0.00  0.00    +0.160 C 
BRANCH  52  54
ATOM     53  C   ASP A   1     -15.242  -7.438  22.989  0.00  0.00    +0.239 C 
ATOM     54  N   ASP A   2     -14.403  -6.696  23.692  0.00  0.00    -0.297 N 
ATOM     55  H   ASP A   2     -14.769  -5.896  24.246  0.00  0.00    +0.150 HD
ATOM     56  O   ASP A   1     -14.860  -8.356  22.263  0.00  0.00    -0.274 OA
BRANCH  53  57
ATOM     57  CA  ASP A   1     -16.724  -7.110  23.088  0.00  0.00    +0.156 C 
BRANCH  57  58
ATOM     58  N   ASP A   1     -17.049  -5.893  23.835  0.00  0.00    -0.238 NA
ATOM     59  H   ASP A   1     -16.744  -4.966  23.476  0.00  0.00    +0.142 HD
ENDBRANCH  57  58
BRANCH  57  60
ATOM     60  CB  ASP A   1     -17.340  -7.036  21.682  0.00  0.00    +0.140 C 
BRANCH  60  61
ATOM     61  CG  ASP A   1     -16.612  -6.053  20.773  0.00  0.00    +0.367 C 
ATOM     62  OD2 ASP A   1     -15.913  -5.149  21.303  0.00  0.00    -0.246 OA
ATOM     63  OD1 ASP A   1     -16.721  -6.229  19.528  0.00  0.00    -0.246 OA
ENDBRANCH  60  61
ENDBRANCH  57  60
ENDBRANCH  53  57
ENDBRANCH  52  54
BRANCH  52  64
ATOM     64  CB  ASP A   2     -12.222  -5.920  22.888  0.00  0.00    +0.143 C 
BRANCH  64  65
ATOM     65  CG  ASP A   2     -10.738  -6.219  22.754  0.00  0.00    +0.367 C 
ATOM     66  OD2 ASP A   2     -10.120  -6.712  23.730  0.00  0.00    -0.246 OA
ATOM     67  OD1 ASP A   2     -10.196  -5.987  21.639  0.00  0.00    -0.246 OA
ENDBRANCH  64  65
ENDBRANCH  52  64
ENDBRANCH  45  52
ENDBRANCH  41  48
ENDBRANCH  40  43
BRANCH  40  68
ATOM     68  CB  TYR A   4      -7.884  -5.639  25.938  0.00  0.00    +0.055 C 
BRANCH  68  69
ATOM     69  CG  TYR A   4      -6.522  -5.048  26.219  0.00  0.00    -0.020 A 
ATOM     70  CD2 TYR A   4      -5.548  -5.792  26.917  0.00  0.00    -0.001 A 
ATOM     71  CE2 TYR A   4      -4.280  -5.272  27.150  0.00  0.00    +0.036 A 
ATOM     72  CZ  TYR A   4      -3.977  -4.012  26.688  0.00  0.00    +0.134 A 
ATOM     73  CE1 TYR A   4      -4.908  -3.240  25.998  0.00  0.00    +0.036 A 
ATOM     74  CD1 TYR A   4      -6.187  -3.764  25.753  0.00  0.00    -0.001 A 
BRANCH  72  75
ATOM     75  OH  TYR A   4      -2.714  -3.513  26.926  0.00  0.00    -0.506 OA
ATOM     76  HH  TYR A   4      -2.184  -4.185  27.424  0.00  0.00    +0.292 HD
ENDBRANCH  72  75
ENDBRANCH  68  69
ENDBRANCH  40  68
ENDBRANCH   1  40
TORSDOF 26
REMARK  Name = ../refined-set-2016/3k00/3k00_pocket.pdb
REMARK  256 active torsions:
REMARK  status: ('A' for Active; 'I' for Inactive)
REMARK    1  A    between atoms: _1  and  _3
REMARK    2  A    between atoms: _3  and  _4
REMARK    3  A    between atoms: _3  and  _6
REMARK    4  A    between atoms: _6  and  _7
REMARK    5  A    between atoms: _10  and  _12
REMARK    6  A    between atoms: _12  and  _13
REMARK    7  A    between atoms: _12  and  _15
REMARK    8  A    between atoms: _15  and  _16
REMARK    9  A    between atoms: _19  and  _21
REMARK   10  A    between atoms: _21  and  _22
REMARK   11  A    between atoms: _21  and  _24
REMARK   12  A    between atoms: _24  and  _25
REMARK   13  A    between atoms: _27  and  _29
REMARK   14  A    between atoms: _29  and  _30
REMARK   15  A    between atoms: _29  and  _32
REMARK   16  A    between atoms: _32  and  _33
REMARK   17  A    between atoms: _38  and  _40
REMARK   18  A    between atoms: _40  and  _41
REMARK   19  A    between atoms: _40  and  _43
REMARK   20  A    between atoms: _43  and  _44
REMARK   21  A    between atoms: _44  and  _45
REMARK   22  A    between atoms: _48  and  _50
REMARK   23  A    between atoms: _50  and  _51
REMARK   24  A    between atoms: _54  and  _56
REMARK   25  A    between atoms: _56  and  _57
REMARK   26  A    between atoms: _56  and  _59
REMARK   27  A    between atoms: _59  and  _60
REMARK   28  A    between atoms: _60  and  _61
REMARK   29  A    between atoms: _64  and  _66
REMARK   30  A    between atoms: _66  and  _67
REMARK   31  A    between atoms: _66  and  _69
REMARK   32  A    between atoms: _69  and  _70
REMARK   33  A    between atoms: _70  and  _71
REMARK   34  A    between atoms: _71  and  _72
REMARK   35  A    between atoms: _72  and  _73
REMARK   36  A    between atoms: _77  and  _79
REMARK   37  A    between atoms: _79  and  _80
REMARK   38  A    between atoms: _79  and  _82
REMARK   39  A    between atoms: _82  and  _83
REMARK   40  A    between atoms: _88  and  _89
REMARK   41  A    between atoms: _91  and  _93
REMARK   42  A    between atoms: _93  and  _94
REMARK   43  A    between atoms: _93  and  _96
REMARK   44  A    between atoms: _96  and  _97
REMARK   45  A    between atoms: _102  and  _104
REMARK   46  A    between atoms: _104  and  _105
REMARK   47  A    between atoms: _104  and  _107
REMARK   48  A    between atoms: _111  and  _112
REMARK   49  A    between atoms: _117  and  _119
REMARK   50  A    between atoms: _119  and  _120
REMARK   51  A    between atoms: _119  and  _122
REMARK   52  A    between atoms: _122  and  _123
REMARK   53  A    between atoms: _129  and  _131
REMARK   54  A    between atoms: _131  and  _132
REMARK   55  A    between atoms: _134  and  _136
REMARK   56  A    between atoms: _136  and  _137
REMARK   57  A    between atoms: _136  and  _139
REMARK   58  A    between atoms: _139  and  _140
REMARK   59  A    between atoms: _140  and  _141
REMARK   60  A    between atoms: _144  and  _146
REMARK   61  A    between atoms: _146  and  _147
REMARK   62  A    between atoms: _150  and  _152
REMARK   63  A    between atoms: _152  and  _153
REMARK   64  A    between atoms: _152  and  _155
REMARK   65  A    between atoms: _155  and  _156
REMARK   66  A    between atoms: _161  and  _163
REMARK   67  A    between atoms: _163  and  _164
REMARK   68  A    between atoms: _167  and  _169
REMARK   69  A    between atoms: _169  and  _170
REMARK   70  A    between atoms: _169  and  _172
REMARK   71  A    between atoms: _172  and  _173
REMARK   72  A    between atoms: _173  and  _174
REMARK   73  A    between atoms: _174  and  _175
REMARK   74  A    between atoms: _175  and  _176
REMARK   75  A    between atoms: _180  and  _182
REMARK   76  A    between atoms: _182  and  _183
REMARK   77  A    between atoms: _182  and  _185
REMARK   78  A    between atoms: _185  and  _186
REMARK   79  A    between atoms: _186  and  _187
REMARK   80  A    between atoms: _187  and  _188
REMARK   81  A    between atoms: _188  and  _189
REMARK   82  A    between atoms: _193  and  _195
REMARK   83  A    between atoms: _195  and  _196
REMARK   84  A    between atoms: _195  and  _198
REMARK   85  A    between atoms: _198  and  _199
REMARK   86  A    between atoms: _199  and  _200
REMARK   87  A    between atoms: _200  and  _201
REMARK   88  A    between atoms: _210  and  _212
REMARK   89  A    between atoms: _212  and  _213
REMARK   90  A    between atoms: _212  and  _215
REMARK   91  A    between atoms: _215  and  _216
REMARK   92  A    between atoms: _216  and  _217
REMARK   93  A    between atoms: _220  and  _222
REMARK   94  A    between atoms: _222  and  _223
REMARK   95  A    between atoms: _222  and  _225
REMARK   96  A    between atoms: _228  and  _230
REMARK   97  A    between atoms: _230  and  _231
REMARK   98  A    between atoms: _234  and  _236
REMARK   99  A    between atoms: _236  and  _237
REMARK  100  A    between atoms: _236  and  _239
REMARK  101  A    between atoms: _239  and  _240
REMARK  102  A    between atoms: _250  and  _252
REMARK  103  A    between atoms: _252  and  _253
REMARK  104  A    between atoms: _252  and  _255
REMARK  105  A    between atoms: _258  and  _260
REMARK  106  A    between atoms: _260  and  _261
REMARK  107  A    between atoms: _260  and  _263
REMARK  108  A    between atoms: _263  and  _264
REMARK  109  A    between atoms: _267  and  _269
REMARK  110  A    between atoms: _269  and  _270
REMARK  111  A    between atoms: _269  and  _272
REMARK  112  A    between atoms: _272  and  _273
REMARK  113  A    between atoms: _279  and  _281
REMARK  114  A    between atoms: _281  and  _282
REMARK  115  A    between atoms: _281  and  _284
REMARK  116  A    between atoms: _284  and  _285
REMARK  117  A    between atoms: _285  and  _286
REMARK  118  A    between atoms: _291  and  _293
REMARK  119  A    between atoms: _293  and  _294
REMARK  120  A    between atoms: _293  and  _296
REMARK  121  A    between atoms: _299  and  _301
REMARK  122  A    between atoms: _301  and  _302
REMARK  123  A    between atoms: _301  and  _304
REMARK  124  A    between atoms: _304  and  _305
REMARK  125  A    between atoms: _308  and  _310
REMARK  126  A    between atoms: _310  and  _311
REMARK  127  A    between atoms: _310  and  _313
REMARK  128  A    between atoms: _313  and  _314
REMARK  129  A    between atoms: _317  and  _319
REMARK  130  A    between atoms: _319  and  _320
REMARK  131  A    between atoms: _319  and  _322
REMARK  132  A    between atoms: _322  and  _323
REMARK  133  A    between atoms: _326  and  _328
REMARK  134  A    between atoms: _328  and  _329
REMARK  135  A    between atoms: _328  and  _331
REMARK  136  A    between atoms: _331  and  _332
REMARK  137  A    between atoms: _335  and  _337
REMARK  138  A    between atoms: _337  and  _338
REMARK  139  A    between atoms: _337  and  _340
REMARK  140  A    between atoms: _340  and  _341
REMARK  141  A    between atoms: _341  and  _342
REMARK  142  A    between atoms: _342  and  _343
REMARK  143  A    between atoms: _352  and  _354
REMARK  144  A    between atoms: _354  and  _355
REMARK  145  A    between atoms: _354  and  _357
REMARK  146  A    between atoms: _357  and  _358
REMARK  147  A    between atoms: _361  and  _363
REMARK  148  A    between atoms: _363  and  _364
REMARK  149  A    between atoms: _363  and  _366
REMARK  150  A    between atoms: _366  and  _367
REMARK  151  A    between atoms: _371  and  _372
REMARK  152  A    between atoms: _377  and  _379
REMARK  153  A    between atoms: _379  and  _380
REMARK  154  A    between atoms: _379  and  _382
REMARK  155  A    between atoms: _382  and  _383
REMARK  156  A    between atoms: _388  and  _389
REMARK  157  A    between atoms: _391  and  _393
REMARK  158  A    between atoms: _393  and  _394
REMARK  159  A    between atoms: _393  and  _396
REMARK  160  A    between atoms: _396  and  _397
REMARK  161  A    between atoms: _407  and  _409
REMARK  162  A    between atoms: _409  and  _410
REMARK  163  A    between atoms: _409  and  _412
REMARK  164  A    between atoms: _412  and  _413
REMARK  165  A    between atoms: _419  and  _421
REMARK  166  A    between atoms: _421  and  _422
REMARK  167  A    between atoms: _421  and  _424
REMARK  168  A    between atoms: _424  and  _425
REMARK  169  A    between atoms: _428  and  _430
REMARK  170  A    between atoms: _430  and  _431
REMARK  171  A    between atoms: _430  and  _433
REMARK  172  A    between atoms: _433  and  _434
REMARK  173  A    between atoms: _444  and  _446
REMARK  174  A    between atoms: _446  and  _447
REMARK  175  A    between atoms: _446  and  _449
REMARK  176  A    between atoms: _449  and  _450
REMARK  177  A    between atoms: _450  and  _451
REMARK  178  A    between atoms: _453  and  _455
REMARK  179  A    between atoms: _455  and  _456
REMARK  180  A    between atoms: _455  and  _458
REMARK  181  A    between atoms: _458  and  _459
REMARK  182  A    between atoms: _464  and  _466
REMARK  183  A    between atoms: _466  and  _467
REMARK  184  A    between atoms: _470  and  _471
REMARK  185  A    between atoms: _476  and  _478
REMARK  186  A    between atoms: _478  and  _479
REMARK  187  A    between atoms: _478  and  _481
REMARK  188  A    between atoms: _481  and  _482
REMARK  189  A    between atoms: _492  and  _494
REMARK  190  A    between atoms: _494  and  _495
REMARK  191  A    between atoms: _499  and  _500
REMARK  192  A    between atoms: _505  and  _507
REMARK  193  A    between atoms: _507  and  _508
REMARK  194  A    between atoms: _507  and  _510
REMARK  195  A    between atoms: _510  and  _511
REMARK  196  A    between atoms: _511  and  _512
REMARK  197  A    between atoms: _517  and  _519
REMARK  198  A    between atoms: _519  and  _520
REMARK  199  A    between atoms: _522  and  _524
REMARK  200  A    between atoms: _524  and  _525
REMARK  201  A    between atoms: _527  and  _529
REMARK  202  A    between atoms: _529  and  _530
REMARK  203  A    between atoms: _529  and  _532
REMARK  204  A    between atoms: _532  and  _533
REMARK  205  A    between atoms: _543  and  _545
REMARK  206  A    between atoms: _545  and  _546
REMARK  207  A    between atoms: _545  and  _548
REMARK  208  A    between atoms: _548  and  _549
REMARK  209  A    between atoms: _552  and  _554
REMARK  210  A    between atoms: _554  and  _555
REMARK  211  A    between atoms: _554  and  _557
REMARK  212  A    between atoms: _557  and  _558
REMARK  213  A    between atoms: _561  and  _563
REMARK  214  A    between atoms: _563  and  _564
REMARK  215  A    between atoms: _563  and  _566
REMARK  216  A    between atoms: _566  and  _567
REMARK  217  A    between atoms: _567  and  _568
REMARK  218  A    between atoms: _568  and  _569
REMARK  219  A    between atoms: _578  and  _580
REMARK  220  A    between atoms: _580  and  _581
REMARK  221  A    between atoms: _580  and  _583
REMARK  222  A    between atoms: _583  and  _584
REMARK  223  A    between atoms: _594  and  _596
REMARK  224  A    between atoms: _596  and  _597
REMARK  225  A    between atoms: _600  and  _602
REMARK  226  A    between atoms: _602  and  _603
REMARK  227  A    between atoms: _602  and  _605
REMARK  228  A    between atoms: _605  and  _606
REMARK  229  A    between atoms: _606  and  _607
REMARK  230  A    between atoms: _610  and  _612
REMARK  231  A    between atoms: _612  and  _613
REMARK  232  A    between atoms: _615  and  _617
REMARK  233  A    between atoms: _617  and  _618
REMARK  234  A    between atoms: _617  and  _620
REMARK  235  A    between atoms: _620  and  _621
REMARK  236  A    between atoms: _626  and  _628
REMARK  237  A    between atoms: _628  and  _629
REMARK  238  A    between atoms: _632  and  _634
REMARK  239  A    between atoms: _634  and  _635
REMARK  240  A    between atoms: _634  and  _637
REMARK  241  A    between atoms: _637  and  _638
REMARK  242  A    between atoms: _641  and  _643
REMARK  243  A    between atoms: _643  and  _644
REMARK  244  A    between atoms: _643  and  _646
REMARK  245  A    between atoms: _646  and  _647
REMARK  246  A    between atoms: _653  and  _655
REMARK  247  A    between atoms: _655  and  _656
REMARK  248  A    between atoms: _655  and  _658
REMARK  249  A    between atoms: _658  and  _659
REMARK  250  A    between atoms: _659  and  _660
REMARK  251  A    between atoms: _663  and  _665
REMARK  252  A    between atoms: _665  and  _666
REMARK  253  A    between atoms: _665  and  _668
REMARK  254  A    between atoms: _668  and  _669
REMARK  255  A    between atoms: _669  and  _670
REMARK  256  A    between atoms: _670  and  _671
REMARK                            x       y       z     vdW  Elec       q    Type
REMARK                         _______ _______ _______ _____ _____    ______ ____
ROOT
ATOM      1  CG  TRP A   1     -12.188  -0.673  16.001  0.00  0.00    -0.002 A 
ATOM      2  CD2 TRP A   1     -11.262   0.187  16.695  0.00  0.00    +0.013 A 
ATOM      3  CE3 TRP A   1     -10.804   0.260  18.021  0.00  0.00    +0.001 A 
ATOM      4  CZ3 TRP A   1      -9.852   1.255  18.349  0.00  0.00    +0.000 A 
ATOM      5  CH2 TRP A   1      -9.350   2.123  17.366  0.00  0.00    +0.001 A 
ATOM      6  CZ2 TRP A   1      -9.767   2.053  16.064  0.00  0.00    +0.017 A 
ATOM      7  CE2 TRP A   1     -10.717   1.068  15.732  0.00  0.00    +0.056 A 
ATOM      8  NE1 TRP A   1     -11.311   0.785  14.527  0.00  0.00    -0.352 N 
ATOM      9  HE1 TRP A   1     -11.123   1.277  13.630  0.00  0.00    +0.166 HD
ATOM     10  CD1 TRP A   1     -12.196  -0.256  14.698  0.00  0.00    +0.068 A 
ENDROOT
BRANCH   1  11
ATOM     11  CB  TRP A   1     -13.021  -1.775  16.609  0.00  0.00    +0.053 C 
BRANCH  11  12
ATOM     12  CA  TRP A   1     -14.183  -1.180  17.421  0.00  0.00    +0.137 C 
BRANCH  12  13
ATOM     13  N   TRP A   1     -15.163  -2.201  17.818  0.00  0.00    -0.239 NA
ATOM     14  H   TRP A   1     -15.099  -3.167  17.438  0.00  0.00    +0.142 HD
ENDBRANCH  12  13
BRANCH  12  15
ATOM     15  C   TRP A   1     -14.868  -0.082  16.607  0.00  0.00    +0.224 C 
ATOM     16  O   TRP A   1     -14.765   1.107  16.940  0.00  0.00    -0.287 OA
ENDBRANCH  12  15
ENDBRANCH  11  12
ENDBRANCH   1  11
TORSDOF 4
REMARK  Name = ../refined-set-2016/3k00/3k00_pocket.pdb
REMARK  256 active torsions:
REMARK  status: ('A' for Active; 'I' for Inactive)
REMARK    1  A    between atoms: _1  and  _3
REMARK    2  A    between atoms: _3  and  _4
REMARK    3  A    between atoms: _3  and  _6
REMARK    4  A    between atoms: _6  and  _7
REMARK    5  A    between atoms: _10  and  _12
REMARK    6  A    between atoms: _12  and  _13
REMARK    7  A    between atoms: _12  and  _15
REMARK    8  A    between atoms: _15  and  _16
REMARK    9  A    between atoms: _19  and  _21
REMARK   10  A    between atoms: _21  and  _22
REMARK   11  A    between atoms: _21  and  _24
REMARK   12  A    between atoms: _24  and  _25
REMARK   13  A    between atoms: _27  and  _29
REMARK   14  A    between atoms: _29  and  _30
REMARK   15  A    between atoms: _29  and  _32
REMARK   16  A    between atoms: _32  and  _33
REMARK   17  A    between atoms: _38  and  _40
REMARK   18  A    between atoms: _40  and  _41
REMARK   19  A    between atoms: _40  and  _43
REMARK   20  A    between atoms: _43  and  _44
REMARK   21  A    between atoms: _44  and  _45
REMARK   22  A    between atoms: _48  and  _50
REMARK   23  A    between atoms: _50  and  _51
REMARK   24  A    between atoms: _54  and  _56
REMARK   25  A    between atoms: _56  and  _57
REMARK   26  A    between atoms: _56  and  _59
REMARK   27  A    between atoms: _59  and  _60
REMARK   28  A    between atoms: _60  and  _61
REMARK   29  A    between atoms: _64  and  _66
REMARK   30  A    between atoms: _66  and  _67
REMARK   31  A    between atoms: _66  and  _69
REMARK   32  A    between atoms: _69  and  _70
REMARK   33  A    between atoms: _70  and  _71
REMARK   34  A    between atoms: _71  and  _72
REMARK   35  A    between atoms: _72  and  _73
REMARK   36  A    between atoms: _77  and  _79
REMARK   37  A    between atoms: _79  and  _80
REMARK   38  A    between atoms: _79  and  _82
REMARK   39  A    between atoms: _82  and  _83
REMARK   40  A    between atoms: _88  and  _89
REMARK   41  A    between atoms: _91  and  _93
REMARK   42  A    between atoms: _93  and  _94
REMARK   43  A    between atoms: _93  and  _96
REMARK   44  A    between atoms: _96  and  _97
REMARK   45  A    between atoms: _102  and  _104
REMARK   46  A    between atoms: _104  and  _105
REMARK   47  A    between atoms: _104  and  _107
REMARK   48  A    between atoms: _111  and  _112
REMARK   49  A    between atoms: _117  and  _119
REMARK   50  A    between atoms: _119  and  _120
REMARK   51  A    between atoms: _119  and  _122
REMARK   52  A    between atoms: _122  and  _123
REMARK   53  A    between atoms: _129  and  _131
REMARK   54  A    between atoms: _131  and  _132
REMARK   55  A    between atoms: _134  and  _136
REMARK   56  A    between atoms: _136  and  _137
REMARK   57  A    between atoms: _136  and  _139
REMARK   58  A    between atoms: _139  and  _140
REMARK   59  A    between atoms: _140  and  _141
REMARK   60  A    between atoms: _144  and  _146
REMARK   61  A    between atoms: _146  and  _147
REMARK   62  A    between atoms: _150  and  _152
REMARK   63  A    between atoms: _152  and  _153
REMARK   64  A    between atoms: _152  and  _155
REMARK   65  A    between atoms: _155  and  _156
REMARK   66  A    between atoms: _161  and  _163
REMARK   67  A    between atoms: _163  and  _164
REMARK   68  A    between atoms: _167  and  _169
REMARK   69  A    between atoms: _169  and  _170
REMARK   70  A    between atoms: _169  and  _172
REMARK   71  A    between atoms: _172  and  _173
REMARK   72  A    between atoms: _173  and  _174
REMARK   73  A    between atoms: _174  and  _175
REMARK   74  A    between atoms: _175  and  _176
REMARK   75  A    between atoms: _180  and  _182
REMARK   76  A    between atoms: _182  and  _183
REMARK   77  A    between atoms: _182  and  _185
REMARK   78  A    between atoms: _185  and  _186
REMARK   79  A    between atoms: _186  and  _187
REMARK   80  A    between atoms: _187  and  _188
REMARK   81  A    between atoms: _188  and  _189
REMARK   82  A    between atoms: _193  and  _195
REMARK   83  A    between atoms: _195  and  _196
REMARK   84  A    between atoms: _195  and  _198
REMARK   85  A    between atoms: _198  and  _199
REMARK   86  A    between atoms: _199  and  _200
REMARK   87  A    between atoms: _200  and  _201
REMARK   88  A    between atoms: _210  and  _212
REMARK   89  A    between atoms: _212  and  _213
REMARK   90  A    between atoms: _212  and  _215
REMARK   91  A    between atoms: _215  and  _216
REMARK   92  A    between atoms: _216  and  _217
REMARK   93  A    between atoms: _220  and  _222
REMARK   94  A    between atoms: _222  and  _223
REMARK   95  A    between atoms: _222  and  _225
REMARK   96  A    between atoms: _228  and  _230
REMARK   97  A    between atoms: _230  and  _231
REMARK   98  A    between atoms: _234  and  _236
REMARK   99  A    between atoms: _236  and  _237
REMARK  100  A    between atoms: _236  and  _239
REMARK  101  A    between atoms: _239  and  _240
REMARK  102  A    between atoms: _250  and  _252
REMARK  103  A    between atoms: _252  and  _253
REMARK  104  A    between atoms: _252  and  _255
REMARK  105  A    between atoms: _258  and  _260
REMARK  106  A    between atoms: _260  and  _261
REMARK  107  A    between atoms: _260  and  _263
REMARK  108  A    between atoms: _263  and  _264
REMARK  109  A    between atoms: _267  and  _269
REMARK  110  A    between atoms: _269  and  _270
REMARK  111  A    between atoms: _269  and  _272
REMARK  112  A    between atoms: _272  and  _273
REMARK  113  A    between atoms: _279  and  _281
REMARK  114  A    between atoms: _281  and  _282
REMARK  115  A    between atoms: _281  and  _284
REMARK  116  A    between atoms: _284  and  _285
REMARK  117  A    between atoms: _285  and  _286
REMARK  118  A    between atoms: _291  and  _293
REMARK  119  A    between atoms: _293  and  _294
REMARK  120  A    between atoms: _293  and  _296
REMARK  121  A    between atoms: _299  and  _301
REMARK  122  A    between atoms: _301  and  _302
REMARK  123  A    between atoms: _301  and  _304
REMARK  124  A    between atoms: _304  and  _305
REMARK  125  A    between atoms: _308  and  _310
REMARK  126  A    between atoms: _310  and  _311
REMARK  127  A    between atoms: _310  and  _313
REMARK  128  A    between atoms: _313  and  _314
REMARK  129  A    between atoms: _317  and  _319
REMARK  130  A    between atoms: _319  and  _320
REMARK  131  A    between atoms: _319  and  _322
REMARK  132  A    between atoms: _322  and  _323
REMARK  133  A    between atoms: _326  and  _328
REMARK  134  A    between atoms: _328  and  _329
REMARK  135  A    between atoms: _328  and  _331
REMARK  136  A    between atoms: _331  and  _332
REMARK  137  A    between atoms: _335  and  _337
REMARK  138  A    between atoms: _337  and  _338
REMARK  139  A    between atoms: _337  and  _340
REMARK  140  A    between atoms: _340  and  _341
REMARK  141  A    between atoms: _341  and  _342
REMARK  142  A    between atoms: _342  and  _343
REMARK  143  A    between atoms: _352  and  _354
REMARK  144  A    between atoms: _354  and  _355
REMARK  145  A    between atoms: _354  and  _357
REMARK  146  A    between atoms: _357  and  _358
REMARK  147  A    between atoms: _361  and  _363
REMARK  148  A    between atoms: _363  and  _364
REMARK  149  A    between atoms: _363  and  _366
REMARK  150  A    between atoms: _366  and  _367
REMARK  151  A    between atoms: _371  and  _372
REMARK  152  A    between atoms: _377  and  _379
REMARK  153  A    between atoms: _379  and  _380
REMARK  154  A    between atoms: _379  and  _382
REMARK  155  A    between atoms: _382  and  _383
REMARK  156  A    between atoms: _388  and  _389
REMARK  157  A    between atoms: _391  and  _393
REMARK  158  A    between atoms: _393  and  _394
REMARK  159  A    between atoms: _393  and  _396
REMARK  160  A    between atoms: _396  and  _397
REMARK  161  A    between atoms: _407  and  _409
REMARK  162  A    between atoms: _409  and  _410
REMARK  163  A    between atoms: _409  and  _412
REMARK  164  A    between atoms: _412  and  _413
REMARK  165  A    between atoms: _419  and  _421
REMARK  166  A    between atoms: _421  and  _422
REMARK  167  A    between atoms: _421  and  _424
REMARK  168  A    between atoms: _424  and  _425
REMARK  169  A    between atoms: _428  and  _430
REMARK  170  A    between atoms: _430  and  _431
REMARK  171  A    between atoms: _430  and  _433
REMARK  172  A    between atoms: _433  and  _434
REMARK  173  A    between atoms: _444  and  _446
REMARK  174  A    between atoms: _446  and  _447
REMARK  175  A    between atoms: _446  and  _449
REMARK  176  A    between atoms: _449  and  _450
REMARK  177  A    between atoms: _450  and  _451
REMARK  178  A    between atoms: _453  and  _455
REMARK  179  A    between atoms: _455  and  _456
REMARK  180  A    between atoms: _455  and  _458
REMARK  181  A    between atoms: _458  and  _459
REMARK  182  A    between atoms: _464  and  _466
REMARK  183  A    between atoms: _466  and  _467
REMARK  184  A    between atoms: _470  and  _471
REMARK  185  A    between atoms: _476  and  _478
REMARK  186  A    between atoms: _478  and  _479
REMARK  187  A    between atoms: _478  and  _481
REMARK  188  A    between atoms: _481  and  _482
REMARK  189  A    between atoms: _492  and  _494
REMARK  190  A    between atoms: _494  and  _495
REMARK  191  A    between atoms: _499  and  _500
REMARK  192  A    between atoms: _505  and  _507
REMARK  193  A    between atoms: _507  and  _508
REMARK  194  A    between atoms: _507  and  _510
REMARK  195  A    between atoms: _510  and  _511
REMARK  196  A    between atoms: _511  and  _512
REMARK  197  A    between atoms: _517  and  _519
REMARK  198  A    between atoms: _519  and  _520
REMARK  199  A    between atoms: _522  and  _524
REMARK  200  A    between atoms: _524  and  _525
REMARK  201  A    between atoms: _527  and  _529
REMARK  202  A    between atoms: _529  and  _530
REMARK  203  A    between atoms: _529  and  _532
REMARK  204  A    between atoms: _532  and  _533
REMARK  205  A    between atoms: _543  and  _545
REMARK  206  A    between atoms: _545  and  _546
REMARK  207  A    between atoms: _545  and  _548
REMARK  208  A    between atoms: _548  and  _549
REMARK  209  A    between atoms: _552  and  _554
REMARK  210  A    between atoms: _554  and  _555
REMARK  211  A    between atoms: _554  and  _557
REMARK  212  A    between atoms: _557  and  _558
REMARK  213  A    between atoms: _561  and  _563
REMARK  214  A    between atoms: _563  and  _564
REMARK  215  A    between atoms: _563  and  _566
REMARK  216  A    between atoms: _566  and  _567
REMARK  217  A    between atoms: _567  and  _568
REMARK  218  A    between atoms: _568  and  _569
REMARK  219  A    between atoms: _578  and  _580
REMARK  220  A    between atoms: _580  and  _581
REMARK  221  A    between atoms: _580  and  _583
REMARK  222  A    between atoms: _583  and  _584
REMARK  223  A    between atoms: _594  and  _596
REMARK  224  A    between atoms: _596  and  _597
REMARK  225  A    between atoms: _600  and  _602
REMARK  226  A    between atoms: _602  and  _603
REMARK  227  A    between atoms: _602  and  _605
REMARK  228  A    between atoms: _605  and  _606
REMARK  229  A    between atoms: _606  and  _607
REMARK  230  A    between atoms: _610  and  _612
REMARK  231  A    between atoms: _612  and  _613
REMARK  232  A    between atoms: _615  and  _617
REMARK  233  A    between atoms: _617  and  _618
REMARK  234  A    between atoms: _617  and  _620
REMARK  235  A    between atoms: _620  and  _621
REMARK  236  A    between atoms: _626  and  _628
REMARK  237  A    between atoms: _628  and  _629
REMARK  238  A    between atoms: _632  and  _634
REMARK  239  A    between atoms: _634  and  _635
REMARK  240  A    between atoms: _634  and  _637
REMARK  241  A    between atoms: _637  and  _638
REMARK  242  A    between atoms: _641  and  _643
REMARK  243  A    between atoms: _643  and  _644
REMARK  244  A    between atoms: _643  and  _646
REMARK  245  A    between atoms: _646  and  _647
REMARK  246  A    between atoms: _653  and  _655
REMARK  247  A    between atoms: _655  and  _656
REMARK  248  A    between atoms: _655  and  _658
REMARK  249  A    between atoms: _658  and  _659
REMARK  250  A    between atoms: _659  and  _660
REMARK  251  A    between atoms: _663  and  _665
REMARK  252  A    between atoms: _665  and  _666
REMARK  253  A    between atoms: _665  and  _668
REMARK  254  A    between atoms: _668  and  _669
REMARK  255  A    between atoms: _669  and  _670
REMARK  256  A    between atoms: _670  and  _671
REMARK                            x       y       z     vdW  Elec       q    Type
REMARK                         _______ _______ _______ _____ _____    ______ ____
ROOT
ATOM      1  CA  MET A   1     -16.902   2.780  19.685  0.00  0.00    +0.134 C 
ENDROOT
BRANCH   1   2
ATOM      2  N   MET A   1     -17.527   1.852  18.728  0.00  0.00    -0.239 NA
ATOM      3  H   MET A   1     -17.072   0.934  18.549  0.00  0.00    +0.142 HD
ENDBRANCH   1   2
BRANCH   1   4
ATOM      4  C   MET A   1     -16.458   4.038  18.950  0.00  0.00    +0.224 C 
ATOM      5  O   MET A   1     -16.770   5.160  19.352  0.00  0.00    -0.287 OA
ENDBRANCH   1   4
BRANCH   1   6
ATOM      6  CB  MET A   1     -15.696   2.105  20.336  0.00  0.00    +0.037 C 
BRANCH   6   7
ATOM      7  CG  MET A   1     -14.962   3.032  21.289  0.00  0.00    +0.059 C 
BRANCH   7   8
ATOM      8  SD  MET A   1     -13.914   2.191  22.473  0.00  0.00    -0.139 S 
ATOM      9  CE  MET A   1     -12.730   1.419  21.403  0.00  0.00    +0.069 C 
ENDBRANCH   7   8
ENDBRANCH   6   7
ENDBRANCH   1   6
TORSDOF 5
REMARK  Name = ../refined-set-2016/3k00/3k00_pocket.pdb
REMARK  256 active torsions:
REMARK  status: ('A' for Active; 'I' for Inactive)
REMARK    1  A    between atoms: _1  and  _3
REMARK    2  A    between atoms: _3  and  _4
REMARK    3  A    between atoms: _3  and  _6
REMARK    4  A    between atoms: _6  and  _7
REMARK    5  A    between atoms: _10  and  _12
REMARK    6  A    between atoms: _12  and  _13
REMARK    7  A    between atoms: _12  and  _15
REMARK    8  A    between atoms: _15  and  _16
REMARK    9  A    between atoms: _19  and  _21
REMARK   10  A    between atoms: _21  and  _22
REMARK   11  A    between atoms: _21  and  _24
REMARK   12  A    between atoms: _24  and  _25
REMARK   13  A    between atoms: _27  and  _29
REMARK   14  A    between atoms: _29  and  _30
REMARK   15  A    between atoms: _29  and  _32
REMARK   16  A    between atoms: _32  and  _33
REMARK   17  A    between atoms: _38  and  _40
REMARK   18  A    between atoms: _40  and  _41
REMARK   19  A    between atoms: _40  and  _43
REMARK   20  A    between atoms: _43  and  _44
REMARK   21  A    between atoms: _44  and  _45
REMARK   22  A    between atoms: _48  and  _50
REMARK   23  A    between atoms: _50  and  _51
REMARK   24  A    between atoms: _54  and  _56
REMARK   25  A    between atoms: _56  and  _57
REMARK   26  A    between atoms: _56  and  _59
REMARK   27  A    between atoms: _59  and  _60
REMARK   28  A    between atoms: _60  and  _61
REMARK   29  A    between atoms: _64  and  _66
REMARK   30  A    between atoms: _66  and  _67
REMARK   31  A    between atoms: _66  and  _69
REMARK   32  A    between atoms: _69  and  _70
REMARK   33  A    between atoms: _70  and  _71
REMARK   34  A    between atoms: _71  and  _72
REMARK   35  A    between atoms: _72  and  _73
REMARK   36  A    between atoms: _77  and  _79
REMARK   37  A    between atoms: _79  and  _80
REMARK   38  A    between atoms: _79  and  _82
REMARK   39  A    between atoms: _82  and  _83
REMARK   40  A    between atoms: _88  and  _89
REMARK   41  A    between atoms: _91  and  _93
REMARK   42  A    between atoms: _93  and  _94
REMARK   43  A    between atoms: _93  and  _96
REMARK   44  A    between atoms: _96  and  _97
REMARK   45  A    between atoms: _102  and  _104
REMARK   46  A    between atoms: _104  and  _105
REMARK   47  A    between atoms: _104  and  _107
REMARK   48  A    between atoms: _111  and  _112
REMARK   49  A    between atoms: _117  and  _119
REMARK   50  A    between atoms: _119  and  _120
REMARK   51  A    between atoms: _119  and  _122
REMARK   52  A    between atoms: _122  and  _123
REMARK   53  A    between atoms: _129  and  _131
REMARK   54  A    between atoms: _131  and  _132
REMARK   55  A    between atoms: _134  and  _136
REMARK   56  A    between atoms: _136  and  _137
REMARK   57  A    between atoms: _136  and  _139
REMARK   58  A    between atoms: _139  and  _140
REMARK   59  A    between atoms: _140  and  _141
REMARK   60  A    between atoms: _144  and  _146
REMARK   61  A    between atoms: _146  and  _147
REMARK   62  A    between atoms: _150  and  _152
REMARK   63  A    between atoms: _152  and  _153
REMARK   64  A    between atoms: _152  and  _155
REMARK   65  A    between atoms: _155  and  _156
REMARK   66  A    between atoms: _161  and  _163
REMARK   67  A    between atoms: _163  and  _164
REMARK   68  A    between atoms: _167  and  _169
REMARK   69  A    between atoms: _169  and  _170
REMARK   70  A    between atoms: _169  and  _172
REMARK   71  A    between atoms: _172  and  _173
REMARK   72  A    between atoms: _173  and  _174
REMARK   73  A    between atoms: _174  and  _175
REMARK   74  A    between atoms: _175  and  _176
REMARK   75  A    between atoms: _180  and  _182
REMARK   76  A    between atoms: _182  and  _183
REMARK   77  A    between atoms: _182  and  _185
REMARK   78  A    between atoms: _185  and  _186
REMARK   79  A    between atoms: _186  and  _187
REMARK   80  A    between atoms: _187  and  _188
REMARK   81  A    between atoms: _188  and  _189
REMARK   82  A    between atoms: _193  and  _195
REMARK   83  A    between atoms: _195  and  _196
REMARK   84  A    between atoms: _195  and  _198
REMARK   85  A    between atoms: _198  and  _199
REMARK   86  A    between atoms: _199  and  _200
REMARK   87  A    between atoms: _200  and  _201
REMARK   88  A    between atoms: _210  and  _212
REMARK   89  A    between atoms: _212  and  _213
REMARK   90  A    between atoms: _212  and  _215
REMARK   91  A    between atoms: _215  and  _216
REMARK   92  A    between atoms: _216  and  _217
REMARK   93  A    between atoms: _220  and  _222
REMARK   94  A    between atoms: _222  and  _223
REMARK   95  A    between atoms: _222  and  _225
REMARK   96  A    between atoms: _228  and  _230
REMARK   97  A    between atoms: _230  and  _231
REMARK   98  A    between atoms: _234  and  _236
REMARK   99  A    between atoms: _236  and  _237
REMARK  100  A    between atoms: _236  and  _239
REMARK  101  A    between atoms: _239  and  _240
REMARK  102  A    between atoms: _250  and  _252
REMARK  103  A    between atoms: _252  and  _253
REMARK  104  A    between atoms: _252  and  _255
REMARK  105  A    between atoms: _258  and  _260
REMARK  106  A    between atoms: _260  and  _261
REMARK  107  A    between atoms: _260  and  _263
REMARK  108  A    between atoms: _263  and  _264
REMARK  109  A    between atoms: _267  and  _269
REMARK  110  A    between atoms: _269  and  _270
REMARK  111  A    between atoms: _269  and  _272
REMARK  112  A    between atoms: _272  and  _273
REMARK  113  A    between atoms: _279  and  _281
REMARK  114  A    between atoms: _281  and  _282
REMARK  115  A    between atoms: _281  and  _284
REMARK  116  A    between atoms: _284  and  _285
REMARK  117  A    between atoms: _285  and  _286
REMARK  118  A    between atoms: _291  and  _293
REMARK  119  A    between atoms: _293  and  _294
REMARK  120  A    between atoms: _293  and  _296
REMARK  121  A    between atoms: _299  and  _301
REMARK  122  A    between atoms: _301  and  _302
REMARK  123  A    between atoms: _301  and  _304
REMARK  124  A    between atoms: _304  and  _305
REMARK  125  A    between atoms: _308  and  _310
REMARK  126  A    between atoms: _310  and  _311
REMARK  127  A    between atoms: _310  and  _313
REMARK  128  A    between atoms: _313  and  _314
REMARK  129  A    between atoms: _317  and  _319
REMARK  130  A    between atoms: _319  and  _320
REMARK  131  A    between atoms: _319  and  _322
REMARK  132  A    between atoms: _322  and  _323
REMARK  133  A    between atoms: _326  and  _328
REMARK  134  A    between atoms: _328  and  _329
REMARK  135  A    between atoms: _328  and  _331
REMARK  136  A    between atoms: _331  and  _332
REMARK  137  A    between atoms: _335  and  _337
REMARK  138  A    between atoms: _337  and  _338
REMARK  139  A    between atoms: _337  and  _340
REMARK  140  A    between atoms: _340  and  _341
REMARK  141  A    between atoms: _341  and  _342
REMARK  142  A    between atoms: _342  and  _343
REMARK  143  A    between atoms: _352  and  _354
REMARK  144  A    between atoms: _354  and  _355
REMARK  145  A    between atoms: _354  and  _357
REMARK  146  A    between atoms: _357  and  _358
REMARK  147  A    between atoms: _361  and  _363
REMARK  148  A    between atoms: _363  and  _364
REMARK  149  A    between atoms: _363  and  _366
REMARK  150  A    between atoms: _366  and  _367
REMARK  151  A    between atoms: _371  and  _372
REMARK  152  A    between atoms: _377  and  _379
REMARK  153  A    between atoms: _379  and  _380
REMARK  154  A    between atoms: _379  and  _382
REMARK  155  A    between atoms: _382  and  _383
REMARK  156  A    between atoms: _388  and  _389
REMARK  157  A    between atoms: _391  and  _393
REMARK  158  A    between atoms: _393  and  _394
REMARK  159  A    between atoms: _393  and  _396
REMARK  160  A    between atoms: _396  and  _397
REMARK  161  A    between atoms: _407  and  _409
REMARK  162  A    between atoms: _409  and  _410
REMARK  163  A    between atoms: _409  and  _412
REMARK  164  A    between atoms: _412  and  _413
REMARK  165  A    between atoms: _419  and  _421
REMARK  166  A    between atoms: _421  and  _422
REMARK  167  A    between atoms: _421  and  _424
REMARK  168  A    between atoms: _424  and  _425
REMARK  169  A    between atoms: _428  and  _430
REMARK  170  A    between atoms: _430  and  _431
REMARK  171  A    between atoms: _430  and  _433
REMARK  172  A    between atoms: _433  and  _434
REMARK  173  A    between atoms: _444  and  _446
REMARK  174  A    between atoms: _446  and  _447
REMARK  175  A    between atoms: _446  and  _449
REMARK  176  A    between atoms: _449  and  _450
REMARK  177  A    between atoms: _450  and  _451
REMARK  178  A    between atoms: _453  and  _455
REMARK  179  A    between atoms: _455  and  _456
REMARK  180  A    between atoms: _455  and  _458
REMARK  181  A    between atoms: _458  and  _459
REMARK  182  A    between atoms: _464  and  _466
REMARK  183  A    between atoms: _466  and  _467
REMARK  184  A    between atoms: _470  and  _471
REMARK  185  A    between atoms: _476  and  _478
REMARK  186  A    between atoms: _478  and  _479
REMARK  187  A    between atoms: _478  and  _481
REMARK  188  A    between atoms: _481  and  _482
REMARK  189  A    between atoms: _492  and  _494
REMARK  190  A    between atoms: _494  and  _495
REMARK  191  A    between atoms: _499  and  _500
REMARK  192  A    between atoms: _505  and  _507
REMARK  193  A    between atoms: _507  and  _508
REMARK  194  A    between atoms: _507  and  _510
REMARK  195  A    between atoms: _510  and  _511
REMARK  196  A    between atoms: _511  and  _512
REMARK  197  A    between atoms: _517  and  _519
REMARK  198  A    between atoms: _519  and  _520
REMARK  199  A    between atoms: _522  and  _524
REMARK  200  A    between atoms: _524  and  _525
REMARK  201  A    between atoms: _527  and  _529
REMARK  202  A    between atoms: _529  and  _530
REMARK  203  A    between atoms: _529  and  _532
REMARK  204  A    between atoms: _532  and  _533
REMARK  205  A    between atoms: _543  and  _545
REMARK  206  A    between atoms: _545  and  _546
REMARK  207  A    between atoms: _545  and  _548
REMARK  208  A    between atoms: _548  and  _549
REMARK  209  A    between atoms: _552  and  _554
REMARK  210  A    between atoms: _554  and  _555
REMARK  211  A    between atoms: _554  and  _557
REMARK  212  A    between atoms: _557  and  _558
REMARK  213  A    between atoms: _561  and  _563
REMARK  214  A    between atoms: _563  and  _564
REMARK  215  A    between atoms: _563  and  _566
REMARK  216  A    between atoms: _566  and  _567
REMARK  217  A    between atoms: _567  and  _568
REMARK  218  A    between atoms: _568  and  _569
REMARK  219  A    between atoms: _578  and  _580
REMARK  220  A    between atoms: _580  and  _581
REMARK  221  A    between atoms: _580  and  _583
REMARK  222  A    between atoms: _583  and  _584
REMARK  223  A    between atoms: _594  and  _596
REMARK  224  A    between atoms: _596  and  _597
REMARK  225  A    between atoms: _600  and  _602
REMARK  226  A    between atoms: _602  and  _603
REMARK  227  A    between atoms: _602  and  _605
REMARK  228  A    between atoms: _605  and  _606
REMARK  229  A    between atoms: _606  and  _607
REMARK  230  A    between atoms: _610  and  _612
REMARK  231  A    between atoms: _612  and  _613
REMARK  232  A    between atoms: _615  and  _617
REMARK  233  A    between atoms: _617  and  _618
REMARK  234  A    between atoms: _617  and  _620
REMARK  235  A    between atoms: _620  and  _621
REMARK  236  A    between atoms: _626  and  _628
REMARK  237  A    between atoms: _628  and  _629
REMARK  238  A    between atoms: _632  and  _634
REMARK  239  A    between atoms: _634  and  _635
REMARK  240  A    between atoms: _634  and  _637
REMARK  241  A    between atoms: _637  and  _638
REMARK  242  A    between atoms: _641  and  _643
REMARK  243  A    between atoms: _643  and  _644
REMARK  244  A    between atoms: _643  and  _646
REMARK  245  A    between atoms: _646  and  _647
REMARK  246  A    between atoms: _653  and  _655
REMARK  247  A    between atoms: _655  and  _656
REMARK  248  A    between atoms: _655  and  _658
REMARK  249  A    between atoms: _658  and  _659
REMARK  250  A    between atoms: _659  and  _660
REMARK  251  A    between atoms: _663  and  _665
REMARK  252  A    between atoms: _665  and  _666
REMARK  253  A    between atoms: _665  and  _668
REMARK  254  A    between atoms: _668  and  _669
REMARK  255  A    between atoms: _669  and  _670
REMARK  256  A    between atoms: _670  and  _671
REMARK                            x       y       z     vdW  Elec       q    Type
REMARK                         _______ _______ _______ _____ _____    ______ ____
ROOT
ATOM      1  C   PRO A   3      -2.906   5.215  19.441  0.00  0.00    +0.241 C 
ATOM      2  N   TRP A   4      -3.205   3.947  19.161  0.00  0.00    -0.297 N 
ATOM      3  H   TRP A   4      -3.154   3.245  19.926  0.00  0.00    +0.150 HD
ATOM      4  O   PRO A   3      -2.884   6.115  18.605  0.00  0.00    -0.273 OA
ENDROOT
BRANCH   1  10
ATOM      5  C   GLY A   2      -4.553   4.534  21.914  0.00  0.00    +0.246 C 
ATOM      6  N   PRO A   3      -3.216   4.650  21.862  0.00  0.00    -0.272 N 
ATOM      7  CD  PRO A   3      -2.213   4.015  22.739  0.00  0.00    +0.094 C 
ATOM      8  CG  PRO A   3      -1.004   4.907  22.580  0.00  0.00    +0.024 C 
ATOM      9  CB  PRO A   3      -1.086   5.377  21.151  0.00  0.00    +0.031 C 
ATOM     10  CA  PRO A   3      -2.582   5.544  20.885  0.00  0.00    +0.152 C 
ATOM     11  O   GLY A   2      -5.305   5.121  21.115  0.00  0.00    -0.273 OA
BRANCH   5  12
ATOM     12  CA  GLY A   2      -5.138   3.649  23.012  0.00  0.00    +0.176 C 
BRANCH  12  15
ATOM     13  C   ASN A   1      -7.310   3.839  24.067  0.00  0.00    +0.239 C 
ATOM     14  O   ASN A   1      -6.816   4.311  25.086  0.00  0.00    -0.274 OA
ATOM     15  N   GLY A   2      -6.586   3.539  22.995  0.00  0.00    -0.296 N 
ATOM     16  H   GLY A   2      -7.064   3.220  22.128  0.00  0.00    +0.150 HD
BRANCH  13  17
ATOM     17  CA  ASN A   1      -8.807   3.620  23.962  0.00  0.00    +0.154 C 
BRANCH  17  18
ATOM     18  N   ASN A   1      -9.475   4.056  25.190  0.00  0.00    -0.238 NA
ATOM     19  H   ASN A   1      -8.989   4.697  25.849  0.00  0.00    +0.142 HD
ENDBRANCH  17  18
BRANCH  17  20
ATOM     20  CB  ASN A   1      -9.404   4.374  22.756  0.00  0.00    +0.111 C 
BRANCH  20  21
ATOM     21  CG  ASN A   1      -9.495   3.503  21.501  0.00  0.00    +0.221 C 
ATOM     22  OD1 ASN A   1      -8.678   2.599  21.280  0.00  0.00    -0.275 OA
ATOM     23  ND2 ASN A   1     -10.491   3.790  20.652  0.00  0.00    -0.329 N 
ATOM     24 HD21 ASN A   1     -11.158   4.557  20.873  0.00  0.00    +0.145 HD
ATOM     25 HD22 ASN A   1     -10.597   3.246  19.772  0.00  0.00    +0.145 HD
ENDBRANCH  20  21
ENDBRANCH  17  20
ENDBRANCH  13  17
ENDBRANCH  12  15
ENDBRANCH   5  12
ENDBRANCH   1  10
BRANCH   2  26
ATOM     26  CA  TRP A   4      -3.605   3.493  17.815  0.00  0.00    +0.153 C 
BRANCH  26  27
ATOM     27  C   TRP A   4      -4.921   4.120  17.335  0.00  0.00    +0.241 C 
ATOM     28  N   ALA A   5      -5.626   4.818  18.234  0.00  0.00    -0.298 N 
ATOM     29  H   ALA A   5      -5.259   4.915  19.202  0.00  0.00    +0.150 HD
ATOM     30  O   TRP A   4      -5.318   3.945  16.172  0.00  0.00    -0.273 OA
BRANCH  28  31
ATOM     31  CA  ALA A   5      -6.906   5.451  17.886  0.00  0.00    +0.137 C 
ATOM     32  CB  ALA A   5      -7.870   5.326  19.062  0.00  0.00    +0.030 C 
BRANCH  31  33
ATOM     33  C   ALA A   5      -6.766   6.936  17.560  0.00  0.00    +0.227 C 
ATOM     34  O   ALA A   5      -7.722   7.541  17.066  0.00  0.00    -0.286 OA
ENDBRANCH  31  33
ENDBRANCH  28  31
ENDBRANCH  26  27
BRANCH  26  35
ATOM     35  CB  TRP A   4      -3.701   1.945  17.788  0.00  0.00    +0.057 C 
BRANCH  35  36
ATOM     36  CG  TRP A   4      -4.733   1.421  18.751  0.00  0.00    -0.002 A 
ATOM     37  CD2 TRP A   4      -4.514   1.019  20.113  0.00  0.00    +0.013 A 
ATOM     38  CE3 TRP A   4      -3.380   0.950  20.938  0.00  0.00    +0.001 A 
ATOM     39  CZ3 TRP A   4      -3.534   0.488  22.257  0.00  0.00    +0.000 A 
ATOM     40  CH2 TRP A   4      -4.817   0.110  22.757  0.00  0.00    +0.001 A 
ATOM     41  CZ2 TRP A   4      -5.948   0.196  21.968  0.00  0.00    +0.017 A 
ATOM     42  CE2 TRP A   4      -5.780   0.660  20.650  0.00  0.00    +0.056 A 
ATOM     43  NE1 TRP A   4      -6.710   0.821  19.652  0.00  0.00    -0.352 N 
ATOM     44  HE1 TRP A   4      -7.729   0.632  19.737  0.00  0.00    +0.166 HD
ATOM     45  CD1 TRP A   4      -6.066   1.276  18.514  0.00  0.00    +0.068 A 
ENDBRANCH  35  36
ENDBRANCH  26  35
ENDBRANCH   2  26
TORSDOF 13
REMARK  Name = ../refined-set-2016/3k00/3k00_pocket.pdb
REMARK  256 active torsions:
REMARK  status: ('A' for Active; 'I' for Inactive)
REMARK    1  A    between atoms: _1  and  _3
REMARK    2  A    between atoms: _3  and  _4
REMARK    3  A    between atoms: _3  and  _6
REMARK    4  A    between atoms: _6  and  _7
REMARK    5  A    between atoms: _10  and  _12
REMARK    6  A    between atoms: _12  and  _13
REMARK    7  A    between atoms: _12  and  _15
REMARK    8  A    between atoms: _15  and  _16
REMARK    9  A    between atoms: _19  and  _21
REMARK   10  A    between atoms: _21  and  _22
REMARK   11  A    between atoms: _21  and  _24
REMARK   12  A    between atoms: _24  and  _25
REMARK   13  A    between atoms: _27  and  _29
REMARK   14  A    between atoms: _29  and  _30
REMARK   15  A    between atoms: _29  and  _32
REMARK   16  A    between atoms: _32  and  _33
REMARK   17  A    between atoms: _38  and  _40
REMARK   18  A    between atoms: _40  and  _41
REMARK   19  A    between atoms: _40  and  _43
REMARK   20  A    between atoms: _43  and  _44
REMARK   21  A    between atoms: _44  and  _45
REMARK   22  A    between atoms: _48  and  _50
REMARK   23  A    between atoms: _50  and  _51
REMARK   24  A    between atoms: _54  and  _56
REMARK   25  A    between atoms: _56  and  _57
REMARK   26  A    between atoms: _56  and  _59
REMARK   27  A    between atoms: _59  and  _60
REMARK   28  A    between atoms: _60  and  _61
REMARK   29  A    between atoms: _64  and  _66
REMARK   30  A    between atoms: _66  and  _67
REMARK   31  A    between atoms: _66  and  _69
REMARK   32  A    between atoms: _69  and  _70
REMARK   33  A    between atoms: _70  and  _71
REMARK   34  A    between atoms: _71  and  _72
REMARK   35  A    between atoms: _72  and  _73
REMARK   36  A    between atoms: _77  and  _79
REMARK   37  A    between atoms: _79  and  _80
REMARK   38  A    between atoms: _79  and  _82
REMARK   39  A    between atoms: _82  and  _83
REMARK   40  A    between atoms: _88  and  _89
REMARK   41  A    between atoms: _91  and  _93
REMARK   42  A    between atoms: _93  and  _94
REMARK   43  A    between atoms: _93  and  _96
REMARK   44  A    between atoms: _96  and  _97
REMARK   45  A    between atoms: _102  and  _104
REMARK   46  A    between atoms: _104  and  _105
REMARK   47  A    between atoms: _104  and  _107
REMARK   48  A    between atoms: _111  and  _112
REMARK   49  A    between atoms: _117  and  _119
REMARK   50  A    between atoms: _119  and  _120
REMARK   51  A    between atoms: _119  and  _122
REMARK   52  A    between atoms: _122  and  _123
REMARK   53  A    between atoms: _129  and  _131
REMARK   54  A    between atoms: _131  and  _132
REMARK   55  A    between atoms: _134  and  _136
REMARK   56  A    between atoms: _136  and  _137
REMARK   57  A    between atoms: _136  and  _139
REMARK   58  A    between atoms: _139  and  _140
REMARK   59  A    between atoms: _140  and  _141
REMARK   60  A    between atoms: _144  and  _146
REMARK   61  A    between atoms: _146  and  _147
REMARK   62  A    between atoms: _150  and  _152
REMARK   63  A    between atoms: _152  and  _153
REMARK   64  A    between atoms: _152  and  _155
REMARK   65  A    between atoms: _155  and  _156
REMARK   66  A    between atoms: _161  and  _163
REMARK   67  A    between atoms: _163  and  _164
REMARK   68  A    between atoms: _167  and  _169
REMARK   69  A    between atoms: _169  and  _170
REMARK   70  A    between atoms: _169  and  _172
REMARK   71  A    between atoms: _172  and  _173
REMARK   72  A    between atoms: _173  and  _174
REMARK   73  A    between atoms: _174  and  _175
REMARK   74  A    between atoms: _175  and  _176
REMARK   75  A    between atoms: _180  and  _182
REMARK   76  A    between atoms: _182  and  _183
REMARK   77  A    between atoms: _182  and  _185
REMARK   78  A    between atoms: _185  and  _186
REMARK   79  A    between atoms: _186  and  _187
REMARK   80  A    between atoms: _187  and  _188
REMARK   81  A    between atoms: _188  and  _189
REMARK   82  A    between atoms: _193  and  _195
REMARK   83  A    between atoms: _195  and  _196
REMARK   84  A    between atoms: _195  and  _198
REMARK   85  A    between atoms: _198  and  _199
REMARK   86  A    between atoms: _199  and  _200
REMARK   87  A    between atoms: _200  and  _201
REMARK   88  A    between atoms: _210  and  _212
REMARK   89  A    between atoms: _212  and  _213
REMARK   90  A    between atoms: _212  and  _215
REMARK   91  A    between atoms: _215  and  _216
REMARK   92  A    between atoms: _216  and  _217
REMARK   93  A    between atoms: _220  and  _222
REMARK   94  A    between atoms: _222  and  _223
REMARK   95  A    between atoms: _222  and  _225
REMARK   96  A    between atoms: _228  and  _230
REMARK   97  A    between atoms: _230  and  _231
REMARK   98  A    between atoms: _234  and  _236
REMARK   99  A    between atoms: _236  and  _237
REMARK  100  A    between atoms: _236  and  _239
REMARK  101  A    between atoms: _239  and  _240
REMARK  102  A    between atoms: _250  and  _252
REMARK  103  A    between atoms: _252  and  _253
REMARK  104  A    between atoms: _252  and  _255
REMARK  105  A    between atoms: _258  and  _260
REMARK  106  A    between atoms: _260  and  _261
REMARK  107  A    between atoms: _260  and  _263
REMARK  108  A    between atoms: _263  and  _264
REMARK  109  A    between atoms: _267  and  _269
REMARK  110  A    between atoms: _269  and  _270
REMARK  111  A    between atoms: _269  and  _272
REMARK  112  A    between atoms: _272  and  _273
REMARK  113  A    between atoms: _279  and  _281
REMARK  114  A    between atoms: _281  and  _282
REMARK  115  A    between atoms: _281  and  _284
REMARK  116  A    between atoms: _284  and  _285
REMARK  117  A    between atoms: _285  and  _286
REMARK  118  A    between atoms: _291  and  _293
REMARK  119  A    between atoms: _293  and  _294
REMARK  120  A    between atoms: _293  and  _296
REMARK  121  A    between atoms: _299  and  _301
REMARK  122  A    between atoms: _301  and  _302
REMARK  123  A    between atoms: _301  and  _304
REMARK  124  A    between atoms: _304  and  _305
REMARK  125  A    between atoms: _308  and  _310
REMARK  126  A    between atoms: _310  and  _311
REMARK  127  A    between atoms: _310  and  _313
REMARK  128  A    between atoms: _313  and  _314
REMARK  129  A    between atoms: _317  and  _319
REMARK  130  A    between atoms: _319  and  _320
REMARK  131  A    between atoms: _319  and  _322
REMARK  132  A    between atoms: _322  and  _323
REMARK  133  A    between atoms: _326  and  _328
REMARK  134  A    between atoms: _328  and  _329
REMARK  135  A    between atoms: _328  and  _331
REMARK  136  A    between atoms: _331  and  _332
REMARK  137  A    between atoms: _335  and  _337
REMARK  138  A    between atoms: _337  and  _338
REMARK  139  A    between atoms: _337  and  _340
REMARK  140  A    between atoms: _340  and  _341
REMARK  141  A    between atoms: _341  and  _342
REMARK  142  A    between atoms: _342  and  _343
REMARK  143  A    between atoms: _352  and  _354
REMARK  144  A    between atoms: _354  and  _355
REMARK  145  A    between atoms: _354  and  _357
REMARK  146  A    between atoms: _357  and  _358
REMARK  147  A    between atoms: _361  and  _363
REMARK  148  A    between atoms: _363  and  _364
REMARK  149  A    between atoms: _363  and  _366
REMARK  150  A    between atoms: _366  and  _367
REMARK  151  A    between atoms: _371  and  _372
REMARK  152  A    between atoms: _377  and  _379
REMARK  153  A    between atoms: _379  and  _380
REMARK  154  A    between atoms: _379  and  _382
REMARK  155  A    between atoms: _382  and  _383
REMARK  156  A    between atoms: _388  and  _389
REMARK  157  A    between atoms: _391  and  _393
REMARK  158  A    between atoms: _393  and  _394
REMARK  159  A    between atoms: _393  and  _396
REMARK  160  A    between atoms: _396  and  _397
REMARK  161  A    between atoms: _407  and  _409
REMARK  162  A    between atoms: _409  and  _410
REMARK  163  A    between atoms: _409  and  _412
REMARK  164  A    between atoms: _412  and  _413
REMARK  165  A    between atoms: _419  and  _421
REMARK  166  A    between atoms: _421  and  _422
REMARK  167  A    between atoms: _421  and  _424
REMARK  168  A    between atoms: _424  and  _425
REMARK  169  A    between atoms: _428  and  _430
REMARK  170  A    between atoms: _430  and  _431
REMARK  171  A    between atoms: _430  and  _433
REMARK  172  A    between atoms: _433  and  _434
REMARK  173  A    between atoms: _444  and  _446
REMARK  174  A    between atoms: _446  and  _447
REMARK  175  A    between atoms: _446  and  _449
REMARK  176  A    between atoms: _449  and  _450
REMARK  177  A    between atoms: _450  and  _451
REMARK  178  A    between atoms: _453  and  _455
REMARK  179  A    between atoms: _455  and  _456
REMARK  180  A    between atoms: _455  and  _458
REMARK  181  A    between atoms: _458  and  _459
REMARK  182  A    between atoms: _464  and  _466
REMARK  183  A    between atoms: _466  and  _467
REMARK  184  A    between atoms: _470  and  _471
REMARK  185  A    between atoms: _476  and  _478
REMARK  186  A    between atoms: _478  and  _479
REMARK  187  A    between atoms: _478  and  _481
REMARK  188  A    between atoms: _481  and  _482
REMARK  189  A    between atoms: _492  and  _494
REMARK  190  A    between atoms: _494  and  _495
REMARK  191  A    between atoms: _499  and  _500
REMARK  192  A    between atoms: _505  and  _507
REMARK  193  A    between atoms: _507  and  _508
REMARK  194  A    between atoms: _507  and  _510
REMARK  195  A    between atoms: _510  and  _511
REMARK  196  A    between atoms: _511  and  _512
REMARK  197  A    between atoms: _517  and  _519
REMARK  198  A    between atoms: _519  and  _520
REMARK  199  A    between atoms: _522  and  _524
REMARK  200  A    between atoms: _524  and  _525
REMARK  201  A    between atoms: _527  and  _529
REMARK  202  A    between atoms: _529  and  _530
REMARK  203  A    between atoms: _529  and  _532
REMARK  204  A    between atoms: _532  and  _533
REMARK  205  A    between atoms: _543  and  _545
REMARK  206  A    between atoms: _545  and  _546
REMARK  207  A    between atoms: _545  and  _548
REMARK  208  A    between atoms: _548  and  _549
REMARK  209  A    between atoms: _552  and  _554
REMARK  210  A    between atoms: _554  and  _555
REMARK  211  A    between atoms: _554  and  _557
REMARK  212  A    between atoms: _557  and  _558
REMARK  213  A    between atoms: _561  and  _563
REMARK  214  A    between atoms: _563  and  _564
REMARK  215  A    between atoms: _563  and  _566
REMARK  216  A    between atoms: _566  and  _567
REMARK  217  A    between atoms: _567  and  _568
REMARK  218  A    between atoms: _568  and  _569
REMARK  219  A    between atoms: _578  and  _580
REMARK  220  A    between atoms: _580  and  _581
REMARK  221  A    between atoms: _580  and  _583
REMARK  222  A    between atoms: _583  and  _584
REMARK  223  A    between atoms: _594  and  _596
REMARK  224  A    between atoms: _596  and  _597
REMARK  225  A    between atoms: _600  and  _602
REMARK  226  A    between atoms: _602  and  _603
REMARK  227  A    between atoms: _602  and  _605
REMARK  228  A    between atoms: _605  and  _606
REMARK  229  A    between atoms: _606  and  _607
REMARK  230  A    between atoms: _610  and  _612
REMARK  231  A    between atoms: _612  and  _613
REMARK  232  A    between atoms: _615  and  _617
REMARK  233  A    between atoms: _617  and  _618
REMARK  234  A    between atoms: _617  and  _620
REMARK  235  A    between atoms: _620  and  _621
REMARK  236  A    between atoms: _626  and  _628
REMARK  237  A    between atoms: _628  and  _629
REMARK  238  A    between atoms: _632  and  _634
REMARK  239  A    between atoms: _634  and  _635
REMARK  240  A    between atoms: _634  and  _637
REMARK  241  A    between atoms: _637  and  _638
REMARK  242  A    between atoms: _641  and  _643
REMARK  243  A    between atoms: _643  and  _644
REMARK  244  A    between atoms: _643  and  _646
REMARK  245  A    between atoms: _646  and  _647
REMARK  246  A    between atoms: _653  and  _655
REMARK  247  A    between atoms: _655  and  _656
REMARK  248  A    between atoms: _655  and  _658
REMARK  249  A    between atoms: _658  and  _659
REMARK  250  A    between atoms: _659  and  _660
REMARK  251  A    between atoms: _663  and  _665
REMARK  252  A    between atoms: _665  and  _666
REMARK  253  A    between atoms: _665  and  _668
REMARK  254  A    between atoms: _668  and  _669
REMARK  255  A    between atoms: _669  and  _670
REMARK  256  A    between atoms: _670  and  _671
REMARK                            x       y       z     vdW  Elec       q    Type
REMARK                         _______ _______ _______ _____ _____    ______ ____
ROOT
ATOM      1  C   GLY A   3       1.374  -3.183  24.501  0.00  0.00    +0.243 C 
ATOM      2  O   GLY A   3       2.353  -2.546  24.895  0.00  0.00    -0.273 OA
ATOM      3  N   GLY A   4       1.185  -3.535  23.233  0.00  0.00    -0.295 N 
ATOM      4  H   GLY A   4       0.380  -4.145  22.986  0.00  0.00    +0.150 HD
ENDROOT
BRANCH   1   5
ATOM      5  CA  GLY A   3       0.302  -3.628  25.473  0.00  0.00    +0.176 C 
BRANCH   5   8
ATOM      6  C   GLN A   2       0.425  -3.510  27.916  0.00  0.00    +0.241 C 
ATOM      7  O   GLN A   2       0.264  -4.737  28.044  0.00  0.00    -0.273 OA
ATOM      8  N   GLY A   3       0.435  -2.888  26.734  0.00  0.00    -0.295 N 
ATOM      9  H   GLY A   3       0.540  -1.854  26.706  0.00  0.00    +0.150 HD
BRANCH   6  10
ATOM     10  CA  GLN A   2       0.689  -2.638  29.131  0.00  0.00    +0.149 C 
BRANCH  10  12
ATOM     11  C   PRO A   1      -1.506  -2.197  30.087  0.00  0.00    +0.239 C 
ATOM     12  N   GLN A   2      -0.373  -2.886  30.108  0.00  0.00    -0.297 N 
ATOM     13  H   GLN A   2      -0.236  -3.618  30.834  0.00  0.00    +0.150 HD
ATOM     14  O   PRO A   1      -1.690  -1.208  29.364  0.00  0.00    -0.274 OA
BRANCH  11  16
ATOM     15  N   PRO A   1      -3.523  -1.628  31.493  0.00  0.00    -0.210 NA
ATOM     16  CA  PRO A   1      -2.619  -2.689  31.022  0.00  0.00    +0.149 C 
ATOM     17  CB  PRO A   1      -3.564  -3.624  30.251  0.00  0.00    +0.028 C 
ATOM     18  CG  PRO A   1      -4.637  -2.708  29.756  0.00  0.00    +0.021 C 
ATOM     19  CD  PRO A   1      -4.851  -1.719  30.860  0.00  0.00    +0.089 C 
ENDBRANCH  11  16
ENDBRANCH  10  12
BRANCH  10  20
ATOM     20  CB  GLN A   2       2.052  -2.998  29.722  0.00  0.00    +0.039 C 
BRANCH  20  21
ATOM     21  CG  GLN A   2       3.254  -2.826  28.751  0.00  0.00    +0.087 C 
BRANCH  21  22
ATOM     22  CD  GLN A   2       4.418  -3.758  29.096  0.00  0.00    +0.219 C 
ATOM     23  OE1 GLN A   2       4.549  -4.198  30.239  0.00  0.00    -0.275 OA
ATOM     24  NE2 GLN A   2       5.259  -4.073  28.106  0.00  0.00    -0.329 N 
ATOM     25 HE21 GLN A   2       6.060  -4.712  28.287  0.00  0.00    +0.145 HD
ATOM     26 HE22 GLN A   2       5.113  -3.680  27.154  0.00  0.00    +0.145 HD
ENDBRANCH  21  22
ENDBRANCH  20  21
ENDBRANCH  10  20
ENDBRANCH   6  10
ENDBRANCH   5   8
ENDBRANCH   1   5
BRANCH   3  27
ATOM     27  CA  GLY A   4       2.090  -3.079  22.183  0.00  0.00    +0.176 C 
BRANCH  27  28
ATOM     28  C   GLY A   4       2.468  -4.172  21.210  0.00  0.00    +0.243 C 
ATOM     29  O   GLY A   4       1.901  -5.272  21.209  0.00  0.00    -0.273 OA
ATOM     30  N   TRP A   5       3.469  -3.851  20.390  0.00  0.00    -0.298 N 
ATOM     31  H   TRP A   5       3.997  -2.973  20.568  0.00  0.00    +0.150 HD
BRANCH  30  32
ATOM     32  CA  TRP A   5       3.856  -4.683  19.250  0.00  0.00    +0.141 C 
BRANCH  32  33
ATOM     33  C   TRP A   5       5.359  -4.786  19.167  0.00  0.00    +0.227 C 
ATOM     34  O   TRP A   5       6.075  -3.819  19.444  0.00  0.00    -0.286 OA
ENDBRANCH  32  33
BRANCH  32  35
ATOM     35  CB  TRP A   5       3.309  -4.104  17.928  0.00  0.00    +0.056 C 
BRANCH  35  36
ATOM     36  CG  TRP A   5       1.821  -4.188  17.992  0.00  0.00    -0.002 A 
ATOM     37  CD1 TRP A   5       0.974  -3.319  18.619  0.00  0.00    +0.068 A 
ATOM     38  NE1 TRP A   5      -0.326  -3.783  18.543  0.00  0.00    -0.352 N 
ATOM     39  HE1 TRP A   5      -1.164  -3.301  18.926  0.00  0.00    +0.166 HD
ATOM     40  CE2 TRP A   5      -0.328  -4.984  17.879  0.00  0.00    +0.056 A 
ATOM     41  CZ2 TRP A   5      -1.399  -5.835  17.542  0.00  0.00    +0.017 A 
ATOM     42  CH2 TRP A   5      -1.105  -6.984  16.846  0.00  0.00    +0.001 A 
ATOM     43  CZ3 TRP A   5       0.230  -7.305  16.465  0.00  0.00    +0.000 A 
ATOM     44  CE3 TRP A   5       1.291  -6.457  16.801  0.00  0.00    +0.001 A 
ATOM     45  CD2 TRP A   5       1.013  -5.270  17.508  0.00  0.00    +0.013 A 
ENDBRANCH  35  36
ENDBRANCH  32  35
ENDBRANCH  30  32
ENDBRANCH  27  28
ENDBRANCH   3  27
TORSDOF 14
REMARK  Name = ../refined-set-2016/3k00/3k00_pocket.pdb
REMARK  256 active torsions:
REMARK  status: ('A' for Active; 'I' for Inactive)
REMARK    1  A    between atoms: _1  and  _3
REMARK    2  A    between atoms: _3  and  _4
REMARK    3  A    between atoms: _3  and  _6
REMARK    4  A    between atoms: _6  and  _7
REMARK    5  A    between atoms: _10  and  _12
REMARK    6  A    between atoms: _12  and  _13
REMARK    7  A    between atoms: _12  and  _15
REMARK    8  A    between atoms: _15  and  _16
REMARK    9  A    between atoms: _19  and  _21
REMARK   10  A    between atoms: _21  and  _22
REMARK   11  A    between atoms: _21  and  _24
REMARK   12  A    between atoms: _24  and  _25
REMARK   13  A    between atoms: _27  and  _29
REMARK   14  A    between atoms: _29  and  _30
REMARK   15  A    between atoms: _29  and  _32
REMARK   16  A    between atoms: _32  and  _33
REMARK   17  A    between atoms: _38  and  _40
REMARK   18  A    between atoms: _40  and  _41
REMARK   19  A    between atoms: _40  and  _43
REMARK   20  A    between atoms: _43  and  _44
REMARK   21  A    between atoms: _44  and  _45
REMARK   22  A    between atoms: _48  and  _50
REMARK   23  A    between atoms: _50  and  _51
REMARK   24  A    between atoms: _54  and  _56
REMARK   25  A    between atoms: _56  and  _57
REMARK   26  A    between atoms: _56  and  _59
REMARK   27  A    between atoms: _59  and  _60
REMARK   28  A    between atoms: _60  and  _61
REMARK   29  A    between atoms: _64  and  _66
REMARK   30  A    between atoms: _66  and  _67
REMARK   31  A    between atoms: _66  and  _69
REMARK   32  A    between atoms: _69  and  _70
REMARK   33  A    between atoms: _70  and  _71
REMARK   34  A    between atoms: _71  and  _72
REMARK   35  A    between atoms: _72  and  _73
REMARK   36  A    between atoms: _77  and  _79
REMARK   37  A    between atoms: _79  and  _80
REMARK   38  A    between atoms: _79  and  _82
REMARK   39  A    between atoms: _82  and  _83
REMARK   40  A    between atoms: _88  and  _89
REMARK   41  A    between atoms: _91  and  _93
REMARK   42  A    between atoms: _93  and  _94
REMARK   43  A    between atoms: _93  and  _96
REMARK   44  A    between atoms: _96  and  _97
REMARK   45  A    between atoms: _102  and  _104
REMARK   46  A    between atoms: _104  and  _105
REMARK   47  A    between atoms: _104  and  _107
REMARK   48  A    between atoms: _111  and  _112
REMARK   49  A    between atoms: _117  and  _119
REMARK   50  A    between atoms: _119  and  _120
REMARK   51  A    between atoms: _119  and  _122
REMARK   52  A    between atoms: _122  and  _123
REMARK   53  A    between atoms: _129  and  _131
REMARK   54  A    between atoms: _131  and  _132
REMARK   55  A    between atoms: _134  and  _136
REMARK   56  A    between atoms: _136  and  _137
REMARK   57  A    between atoms: _136  and  _139
REMARK   58  A    between atoms: _139  and  _140
REMARK   59  A    between atoms: _140  and  _141
REMARK   60  A    between atoms: _144  and  _146
REMARK   61  A    between atoms: _146  and  _147
REMARK   62  A    between atoms: _150  and  _152
REMARK   63  A    between atoms: _152  and  _153
REMARK   64  A    between atoms: _152  and  _155
REMARK   65  A    between atoms: _155  and  _156
REMARK   66  A    between atoms: _161  and  _163
REMARK   67  A    between atoms: _163  and  _164
REMARK   68  A    between atoms: _167  and  _169
REMARK   69  A    between atoms: _169  and  _170
REMARK   70  A    between atoms: _169  and  _172
REMARK   71  A    between atoms: _172  and  _173
REMARK   72  A    between atoms: _173  and  _174
REMARK   73  A    between atoms: _174  and  _175
REMARK   74  A    between atoms: _175  and  _176
REMARK   75  A    between atoms: _180  and  _182
REMARK   76  A    between atoms: _182  and  _183
REMARK   77  A    between atoms: _182  and  _185
REMARK   78  A    between atoms: _185  and  _186
REMARK   79  A    between atoms: _186  and  _187
REMARK   80  A    between atoms: _187  and  _188
REMARK   81  A    between atoms: _188  and  _189
REMARK   82  A    between atoms: _193  and  _195
REMARK   83  A    between atoms: _195  and  _196
REMARK   84  A    between atoms: _195  and  _198
REMARK   85  A    between atoms: _198  and  _199
REMARK   86  A    between atoms: _199  and  _200
REMARK   87  A    between atoms: _200  and  _201
REMARK   88  A    between atoms: _210  and  _212
REMARK   89  A    between atoms: _212  and  _213
REMARK   90  A    between atoms: _212  and  _215
REMARK   91  A    between atoms: _215  and  _216
REMARK   92  A    between atoms: _216  and  _217
REMARK   93  A    between atoms: _220  and  _222
REMARK   94  A    between atoms: _222  and  _223
REMARK   95  A    between atoms: _222  and  _225
REMARK   96  A    between atoms: _228  and  _230
REMARK   97  A    between atoms: _230  and  _231
REMARK   98  A    between atoms: _234  and  _236
REMARK   99  A    between atoms: _236  and  _237
REMARK  100  A    between atoms: _236  and  _239
REMARK  101  A    between atoms: _239  and  _240
REMARK  102  A    between atoms: _250  and  _252
REMARK  103  A    between atoms: _252  and  _253
REMARK  104  A    between atoms: _252  and  _255
REMARK  105  A    between atoms: _258  and  _260
REMARK  106  A    between atoms: _260  and  _261
REMARK  107  A    between atoms: _260  and  _263
REMARK  108  A    between atoms: _263  and  _264
REMARK  109  A    between atoms: _267  and  _269
REMARK  110  A    between atoms: _269  and  _270
REMARK  111  A    between atoms: _269  and  _272
REMARK  112  A    between atoms: _272  and  _273
REMARK  113  A    between atoms: _279  and  _281
REMARK  114  A    between atoms: _281  and  _282
REMARK  115  A    between atoms: _281  and  _284
REMARK  116  A    between atoms: _284  and  _285
REMARK  117  A    between atoms: _285  and  _286
REMARK  118  A    between atoms: _291  and  _293
REMARK  119  A    between atoms: _293  and  _294
REMARK  120  A    between atoms: _293  and  _296
REMARK  121  A    between atoms: _299  and  _301
REMARK  122  A    between atoms: _301  and  _302
REMARK  123  A    between atoms: _301  and  _304
REMARK  124  A    between atoms: _304  and  _305
REMARK  125  A    between atoms: _308  and  _310
REMARK  126  A    between atoms: _310  and  _311
REMARK  127  A    between atoms: _310  and  _313
REMARK  128  A    between atoms: _313  and  _314
REMARK  129  A    between atoms: _317  and  _319
REMARK  130  A    between atoms: _319  and  _320
REMARK  131  A    between atoms: _319  and  _322
REMARK  132  A    between atoms: _322  and  _323
REMARK  133  A    between atoms: _326  and  _328
REMARK  134  A    between atoms: _328  and  _329
REMARK  135  A    between atoms: _328  and  _331
REMARK  136  A    between atoms: _331  and  _332
REMARK  137  A    between atoms: _335  and  _337
REMARK  138  A    between atoms: _337  and  _338
REMARK  139  A    between atoms: _337  and  _340
REMARK  140  A    between atoms: _340  and  _341
REMARK  141  A    between atoms: _341  and  _342
REMARK  142  A    between atoms: _342  and  _343
REMARK  143  A    between atoms: _352  and  _354
REMARK  144  A    between atoms: _354  and  _355
REMARK  145  A    between atoms: _354  and  _357
REMARK  146  A    between atoms: _357  and  _358
REMARK  147  A    between atoms: _361  and  _363
REMARK  148  A    between atoms: _363  and  _364
REMARK  149  A    between atoms: _363  and  _366
REMARK  150  A    between atoms: _366  and  _367
REMARK  151  A    between atoms: _371  and  _372
REMARK  152  A    between atoms: _377  and  _379
REMARK  153  A    between atoms: _379  and  _380
REMARK  154  A    between atoms: _379  and  _382
REMARK  155  A    between atoms: _382  and  _383
REMARK  156  A    between atoms: _388  and  _389
REMARK  157  A    between atoms: _391  and  _393
REMARK  158  A    between atoms: _393  and  _394
REMARK  159  A    between atoms: _393  and  _396
REMARK  160  A    between atoms: _396  and  _397
REMARK  161  A    between atoms: _407  and  _409
REMARK  162  A    between atoms: _409  and  _410
REMARK  163  A    between atoms: _409  and  _412
REMARK  164  A    between atoms: _412  and  _413
REMARK  165  A    between atoms: _419  and  _421
REMARK  166  A    between atoms: _421  and  _422
REMARK  167  A    between atoms: _421  and  _424
REMARK  168  A    between atoms: _424  and  _425
REMARK  169  A    between atoms: _428  and  _430
REMARK  170  A    between atoms: _430  and  _431
REMARK  171  A    between atoms: _430  and  _433
REMARK  172  A    between atoms: _433  and  _434
REMARK  173  A    between atoms: _444  and  _446
REMARK  174  A    between atoms: _446  and  _447
REMARK  175  A    between atoms: _446  and  _449
REMARK  176  A    between atoms: _449  and  _450
REMARK  177  A    between atoms: _450  and  _451
REMARK  178  A    between atoms: _453  and  _455
REMARK  179  A    between atoms: _455  and  _456
REMARK  180  A    between atoms: _455  and  _458
REMARK  181  A    between atoms: _458  and  _459
REMARK  182  A    between atoms: _464  and  _466
REMARK  183  A    between atoms: _466  and  _467
REMARK  184  A    between atoms: _470  and  _471
REMARK  185  A    between atoms: _476  and  _478
REMARK  186  A    between atoms: _478  and  _479
REMARK  187  A    between atoms: _478  and  _481
REMARK  188  A    between atoms: _481  and  _482
REMARK  189  A    between atoms: _492  and  _494
REMARK  190  A    between atoms: _494  and  _495
REMARK  191  A    between atoms: _499  and  _500
REMARK  192  A    between atoms: _505  and  _507
REMARK  193  A    between atoms: _507  and  _508
REMARK  194  A    between atoms: _507  and  _510
REMARK  195  A    between atoms: _510  and  _511
REMARK  196  A    between atoms: _511  and  _512
REMARK  197  A    between atoms: _517  and  _519
REMARK  198  A    between atoms: _519  and  _520
REMARK  199  A    between atoms: _522  and  _524
REMARK  200  A    between atoms: _524  and  _525
REMARK  201  A    between atoms: _527  and  _529
REMARK  202  A    between atoms: _529  and  _530
REMARK  203  A    between atoms: _529  and  _532
REMARK  204  A    between atoms: _532  and  _533
REMARK  205  A    between atoms: _543  and  _545
REMARK  206  A    between atoms: _545  and  _546
REMARK  207  A    between atoms: _545  and  _548
REMARK  208  A    between atoms: _548  and  _549
REMARK  209  A    between atoms: _552  and  _554
REMARK  210  A    between atoms: _554  and  _555
REMARK  211  A    between atoms: _554  and  _557
REMARK  212  A    between atoms: _557  and  _558
REMARK  213  A    between atoms: _561  and  _563
REMARK  214  A    between atoms: _563  and  _564
REMARK  215  A    between atoms: _563  and  _566
REMARK  216  A    between atoms: _566  and  _567
REMARK  217  A    between atoms: _567  and  _568
REMARK  218  A    between atoms: _568  and  _569
REMARK  219  A    between atoms: _578  and  _580
REMARK  220  A    between atoms: _580  and  _581
REMARK  221  A    between atoms: _580  and  _583
REMARK  222  A    between atoms: _583  and  _584
REMARK  223  A    between atoms: _594  and  _596
REMARK  224  A    between atoms: _596  and  _597
REMARK  225  A    between atoms: _600  and  _602
REMARK  226  A    between atoms: _602  and  _603
REMARK  227  A    between atoms: _602  and  _605
REMARK  228  A    between atoms: _605  and  _606
REMARK  229  A    between atoms: _606  and  _607
REMARK  230  A    between atoms: _610  and  _612
REMARK  231  A    between atoms: _612  and  _613
REMARK  232  A    between atoms: _615  and  _617
REMARK  233  A    between atoms: _617  and  _618
REMARK  234  A    between atoms: _617  and  _620
REMARK  235  A    between atoms: _620  and  _621
REMARK  236  A    between atoms: _626  and  _628
REMARK  237  A    between atoms: _628  and  _629
REMARK  238  A    between atoms: _632  and  _634
REMARK  239  A    between atoms: _634  and  _635
REMARK  240  A    between atoms: _634  and  _637
REMARK  241  A    between atoms: _637  and  _638
REMARK  242  A    between atoms: _641  and  _643
REMARK  243  A    between atoms: _643  and  _644
REMARK  244  A    between atoms: _643  and  _646
REMARK  245  A    between atoms: _646  and  _647
REMARK  246  A    between atoms: _653  and  _655
REMARK  247  A    between atoms: _655  and  _656
REMARK  248  A    between atoms: _655  and  _658
REMARK  249  A    between atoms: _658  and  _659
REMARK  250  A    between atoms: _659  and  _660
REMARK  251  A    between atoms: _663  and  _665
REMARK  252  A    between atoms: _665  and  _666
REMARK  253  A    between atoms: _665  and  _668
REMARK  254  A    between atoms: _668  and  _669
REMARK  255  A    between atoms: _669  and  _670
REMARK  256  A    between atoms: _670  and  _671
REMARK                            x       y       z     vdW  Elec       q    Type
REMARK                         _______ _______ _______ _____ _____    ______ ____
ROOT
ATOM      1  CA  LEU A   1       0.961   8.521  14.105  0.00  0.00    +0.133 C 
ENDROOT
BRANCH   1   2
ATOM      2  N   LEU A   1       2.059   9.283  13.490  0.00  0.00    -0.239 NA
ATOM      3  H   LEU A   1       3.002   9.262  13.927  0.00  0.00    +0.142 HD
ENDBRANCH   1   2
BRANCH   1   4
ATOM      4  C   LEU A   1       0.768   8.720  15.602  0.00  0.00    +0.224 C 
ATOM      5  O   LEU A   1      -0.257   8.293  16.133  0.00  0.00    -0.287 OA
ENDBRANCH   1   4
BRANCH   1   6
ATOM      6  CB  LEU A   1       1.157   7.024  13.847  0.00  0.00    +0.025 C 
BRANCH   6   7
ATOM      7  CG  LEU A   1       1.008   6.565  12.395  0.00  0.00    +0.002 C 
ATOM      8  CD2 LEU A   1       1.199   5.045  12.343  0.00  0.00    +0.000 C 
ATOM      9  CD1 LEU A   1      -0.326   6.977  11.777  0.00  0.00    +0.000 C 
ENDBRANCH   6   7
ENDBRANCH   1   6
TORSDOF 4
REMARK  Name = ../refined-set-2016/3k00/3k00_pocket.pdb
REMARK  256 active torsions:
REMARK  status: ('A' for Active; 'I' for Inactive)
REMARK    1  A    between atoms: _1  and  _3
REMARK    2  A    between atoms: _3  and  _4
REMARK    3  A    between atoms: _3  and  _6
REMARK    4  A    between atoms: _6  and  _7
REMARK    5  A    between atoms: _10  and  _12
REMARK    6  A    between atoms: _12  and  _13
REMARK    7  A    between atoms: _12  and  _15
REMARK    8  A    between atoms: _15  and  _16
REMARK    9  A    between atoms: _19  and  _21
REMARK   10  A    between atoms: _21  and  _22
REMARK   11  A    between atoms: _21  and  _24
REMARK   12  A    between atoms: _24  and  _25
REMARK   13  A    between atoms: _27  and  _29
REMARK   14  A    between atoms: _29  and  _30
REMARK   15  A    between atoms: _29  and  _32
REMARK   16  A    between atoms: _32  and  _33
REMARK   17  A    between atoms: _38  and  _40
REMARK   18  A    between atoms: _40  and  _41
REMARK   19  A    between atoms: _40  and  _43
REMARK   20  A    between atoms: _43  and  _44
REMARK   21  A    between atoms: _44  and  _45
REMARK   22  A    between atoms: _48  and  _50
REMARK   23  A    between atoms: _50  and  _51
REMARK   24  A    between atoms: _54  and  _56
REMARK   25  A    between atoms: _56  and  _57
REMARK   26  A    between atoms: _56  and  _59
REMARK   27  A    between atoms: _59  and  _60
REMARK   28  A    between atoms: _60  and  _61
REMARK   29  A    between atoms: _64  and  _66
REMARK   30  A    between atoms: _66  and  _67
REMARK   31  A    between atoms: _66  and  _69
REMARK   32  A    between atoms: _69  and  _70
REMARK   33  A    between atoms: _70  and  _71
REMARK   34  A    between atoms: _71  and  _72
REMARK   35  A    between atoms: _72  and  _73
REMARK   36  A    between atoms: _77  and  _79
REMARK   37  A    between atoms: _79  and  _80
REMARK   38  A    between atoms: _79  and  _82
REMARK   39  A    between atoms: _82  and  _83
REMARK   40  A    between atoms: _88  and  _89
REMARK   41  A    between atoms: _91  and  _93
REMARK   42  A    between atoms: _93  and  _94
REMARK   43  A    between atoms: _93  and  _96
REMARK   44  A    between atoms: _96  and  _97
REMARK   45  A    between atoms: _102  and  _104
REMARK   46  A    between atoms: _104  and  _105
REMARK   47  A    between atoms: _104  and  _107
REMARK   48  A    between atoms: _111  and  _112
REMARK   49  A    between atoms: _117  and  _119
REMARK   50  A    between atoms: _119  and  _120
REMARK   51  A    between atoms: _119  and  _122
REMARK   52  A    between atoms: _122  and  _123
REMARK   53  A    between atoms: _129  and  _131
REMARK   54  A    between atoms: _131  and  _132
REMARK   55  A    between atoms: _134  and  _136
REMARK   56  A    between atoms: _136  and  _137
REMARK   57  A    between atoms: _136  and  _139
REMARK   58  A    between atoms: _139  and  _140
REMARK   59  A    between atoms: _140  and  _141
REMARK   60  A    between atoms: _144  and  _146
REMARK   61  A    between atoms: _146  and  _147
REMARK   62  A    between atoms: _150  and  _152
REMARK   63  A    between atoms: _152  and  _153
REMARK   64  A    between atoms: _152  and  _155
REMARK   65  A    between atoms: _155  and  _156
REMARK   66  A    between atoms: _161  and  _163
REMARK   67  A    between atoms: _163  and  _164
REMARK   68  A    between atoms: _167  and  _169
REMARK   69  A    between atoms: _169  and  _170
REMARK   70  A    between atoms: _169  and  _172
REMARK   71  A    between atoms: _172  and  _173
REMARK   72  A    between atoms: _173  and  _174
REMARK   73  A    between atoms: _174  and  _175
REMARK   74  A    between atoms: _175  and  _176
REMARK   75  A    between atoms: _180  and  _182
REMARK   76  A    between atoms: _182  and  _183
REMARK   77  A    between atoms: _182  and  _185
REMARK   78  A    between atoms: _185  and  _186
REMARK   79  A    between atoms: _186  and  _187
REMARK   80  A    between atoms: _187  and  _188
REMARK   81  A    between atoms: _188  and  _189
REMARK   82  A    between atoms: _193  and  _195
REMARK   83  A    between atoms: _195  and  _196
REMARK   84  A    between atoms: _195  and  _198
REMARK   85  A    between atoms: _198  and  _199
REMARK   86  A    between atoms: _199  and  _200
REMARK   87  A    between atoms: _200  and  _201
REMARK   88  A    between atoms: _210  and  _212
REMARK   89  A    between atoms: _212  and  _213
REMARK   90  A    between atoms: _212  and  _215
REMARK   91  A    between atoms: _215  and  _216
REMARK   92  A    between atoms: _216  and  _217
REMARK   93  A    between atoms: _220  and  _222
REMARK   94  A    between atoms: _222  and  _223
REMARK   95  A    between atoms: _222  and  _225
REMARK   96  A    between atoms: _228  and  _230
REMARK   97  A    between atoms: _230  and  _231
REMARK   98  A    between atoms: _234  and  _236
REMARK   99  A    between atoms: _236  and  _237
REMARK  100  A    between atoms: _236  and  _239
REMARK  101  A    between atoms: _239  and  _240
REMARK  102  A    between atoms: _250  and  _252
REMARK  103  A    between atoms: _252  and  _253
REMARK  104  A    between atoms: _252  and  _255
REMARK  105  A    between atoms: _258  and  _260
REMARK  106  A    between atoms: _260  and  _261
REMARK  107  A    between atoms: _260  and  _263
REMARK  108  A    between atoms: _263  and  _264
REMARK  109  A    between atoms: _267  and  _269
REMARK  110  A    between atoms: _269  and  _270
REMARK  111  A    between atoms: _269  and  _272
REMARK  112  A    between atoms: _272  and  _273
REMARK  113  A    between atoms: _279  and  _281
REMARK  114  A    between atoms: _281  and  _282
REMARK  115  A    between atoms: _281  and  _284
REMARK  116  A    between atoms: _284  and  _285
REMARK  117  A    between atoms: _285  and  _286
REMARK  118  A    between atoms: _291  and  _293
REMARK  119  A    between atoms: _293  and  _294
REMARK  120  A    between atoms: _293  and  _296
REMARK  121  A    between atoms: _299  and  _301
REMARK  122  A    between atoms: _301  and  _302
REMARK  123  A    between atoms: _301  and  _304
REMARK  124  A    between atoms: _304  and  _305
REMARK  125  A    between atoms: _308  and  _310
REMARK  126  A    between atoms: _310  and  _311
REMARK  127  A    between atoms: _310  and  _313
REMARK  128  A    between atoms: _313  and  _314
REMARK  129  A    between atoms: _317  and  _319
REMARK  130  A    between atoms: _319  and  _320
REMARK  131  A    between atoms: _319  and  _322
REMARK  132  A    between atoms: _322  and  _323
REMARK  133  A    between atoms: _326  and  _328
REMARK  134  A    between atoms: _328  and  _329
REMARK  135  A    between atoms: _328  and  _331
REMARK  136  A    between atoms: _331  and  _332
REMARK  137  A    between atoms: _335  and  _337
REMARK  138  A    between atoms: _337  and  _338
REMARK  139  A    between atoms: _337  and  _340
REMARK  140  A    between atoms: _340  and  _341
REMARK  141  A    between atoms: _341  and  _342
REMARK  142  A    between atoms: _342  and  _343
REMARK  143  A    between atoms: _352  and  _354
REMARK  144  A    between atoms: _354  and  _355
REMARK  145  A    between atoms: _354  and  _357
REMARK  146  A    between atoms: _357  and  _358
REMARK  147  A    between atoms: _361  and  _363
REMARK  148  A    between atoms: _363  and  _364
REMARK  149  A    between atoms: _363  and  _366
REMARK  150  A    between atoms: _366  and  _367
REMARK  151  A    between atoms: _371  and  _372
REMARK  152  A    between atoms: _377  and  _379
REMARK  153  A    between atoms: _379  and  _380
REMARK  154  A    between atoms: _379  and  _382
REMARK  155  A    between atoms: _382  and  _383
REMARK  156  A    between atoms: _388  and  _389
REMARK  157  A    between atoms: _391  and  _393
REMARK  158  A    between atoms: _393  and  _394
REMARK  159  A    between atoms: _393  and  _396
REMARK  160  A    between atoms: _396  and  _397
REMARK  161  A    between atoms: _407  and  _409
REMARK  162  A    between atoms: _409  and  _410
REMARK  163  A    between atoms: _409  and  _412
REMARK  164  A    between atoms: _412  and  _413
REMARK  165  A    between atoms: _419  and  _421
REMARK  166  A    between atoms: _421  and  _422
REMARK  167  A    between atoms: _421  and  _424
REMARK  168  A    between atoms: _424  and  _425
REMARK  169  A    between atoms: _428  and  _430
REMARK  170  A    between atoms: _430  and  _431
REMARK  171  A    between atoms: _430  and  _433
REMARK  172  A    between atoms: _433  and  _434
REMARK  173  A    between atoms: _444  and  _446
REMARK  174  A    between atoms: _446  and  _447
REMARK  175  A    between atoms: _446  and  _449
REMARK  176  A    between atoms: _449  and  _450
REMARK  177  A    between atoms: _450  and  _451
REMARK  178  A    between atoms: _453  and  _455
REMARK  179  A    between atoms: _455  and  _456
REMARK  180  A    between atoms: _455  and  _458
REMARK  181  A    between atoms: _458  and  _459
REMARK  182  A    between atoms: _464  and  _466
REMARK  183  A    between atoms: _466  and  _467
REMARK  184  A    between atoms: _470  and  _471
REMARK  185  A    between atoms: _476  and  _478
REMARK  186  A    between atoms: _478  and  _479
REMARK  187  A    between atoms: _478  and  _481
REMARK  188  A    between atoms: _481  and  _482
REMARK  189  A    between atoms: _492  and  _494
REMARK  190  A    between atoms: _494  and  _495
REMARK  191  A    between atoms: _499  and  _500
REMARK  192  A    between atoms: _505  and  _507
REMARK  193  A    between atoms: _507  and  _508
REMARK  194  A    between atoms: _507  and  _510
REMARK  195  A    between atoms: _510  and  _511
REMARK  196  A    between atoms: _511  and  _512
REMARK  197  A    between atoms: _517  and  _519
REMARK  198  A    between atoms: _519  and  _520
REMARK  199  A    between atoms: _522  and  _524
REMARK  200  A    between atoms: _524  and  _525
REMARK  201  A    between atoms: _527  and  _529
REMARK  202  A    between atoms: _529  and  _530
REMARK  203  A    between atoms: _529  and  _532
REMARK  204  A    between atoms: _532  and  _533
REMARK  205  A    between atoms: _543  and  _545
REMARK  206  A    between atoms: _545  and  _546
REMARK  207  A    between atoms: _545  and  _548
REMARK  208  A    between atoms: _548  and  _549
REMARK  209  A    between atoms: _552  and  _554
REMARK  210  A    between atoms: _554  and  _555
REMARK  211  A    between atoms: _554  and  _557
REMARK  212  A    between atoms: _557  and  _558
REMARK  213  A    between atoms: _561  and  _563
REMARK  214  A    between atoms: _563  and  _564
REMARK  215  A    between atoms: _563  and  _566
REMARK  216  A    between atoms: _566  and  _567
REMARK  217  A    between atoms: _567  and  _568
REMARK  218  A    between atoms: _568  and  _569
REMARK  219  A    between atoms: _578  and  _580
REMARK  220  A    between atoms: _580  and  _581
REMARK  221  A    between atoms: _580  and  _583
REMARK  222  A    between atoms: _583  and  _584
REMARK  223  A    between atoms: _594  and  _596
REMARK  224  A    between atoms: _596  and  _597
REMARK  225  A    between atoms: _600  and  _602
REMARK  226  A    between atoms: _602  and  _603
REMARK  227  A    between atoms: _602  and  _605
REMARK  228  A    between atoms: _605  and  _606
REMARK  229  A    between atoms: _606  and  _607
REMARK  230  A    between atoms: _610  and  _612
REMARK  231  A    between atoms: _612  and  _613
REMARK  232  A    between atoms: _615  and  _617
REMARK  233  A    between atoms: _617  and  _618
REMARK  234  A    between atoms: _617  and  _620
REMARK  235  A    between atoms: _620  and  _621
REMARK  236  A    between atoms: _626  and  _628
REMARK  237  A    between atoms: _628  and  _629
REMARK  238  A    between atoms: _632  and  _634
REMARK  239  A    between atoms: _634  and  _635
REMARK  240  A    between atoms: _634  and  _637
REMARK  241  A    between atoms: _637  and  _638
REMARK  242  A    between atoms: _641  and  _643
REMARK  243  A    between atoms: _643  and  _644
REMARK  244  A    between atoms: _643  and  _646
REMARK  245  A    between atoms: _646  and  _647
REMARK  246  A    between atoms: _653  and  _655
REMARK  247  A    between atoms: _655  and  _656
REMARK  248  A    between atoms: _655  and  _658
REMARK  249  A    between atoms: _658  and  _659
REMARK  250  A    between atoms: _659  and  _660
REMARK  251  A    between atoms: _663  and  _665
REMARK  252  A    between atoms: _665  and  _666
REMARK  253  A    between atoms: _665  and  _668
REMARK  254  A    between atoms: _668  and  _669
REMARK  255  A    between atoms: _669  and  _670
REMARK  256  A    between atoms: _670  and  _671
REMARK                            x       y       z     vdW  Elec       q    Type
REMARK                         _______ _______ _______ _____ _____    ______ ____
ROOT
ATOM      1  CA  LEU A   1       2.538   5.847  18.568  0.00  0.00    +0.133 C 
ENDROOT
BRANCH   1   2
ATOM      2  N   LEU A   1       2.273   7.091  17.840  0.00  0.00    -0.239 NA
ATOM      3  H   LEU A   1       2.480   7.149  16.822  0.00  0.00    +0.142 HD
ENDBRANCH   1   2
BRANCH   1   4
ATOM      4  C   LEU A   1       3.798   5.970  19.408  0.00  0.00    +0.224 C 
ATOM      5  O   LEU A   1       4.727   6.696  19.048  0.00  0.00    -0.287 OA
ENDBRANCH   1   4
BRANCH   1   6
ATOM      6  CB  LEU A   1       2.660   4.674  17.592  0.00  0.00    +0.025 C 
BRANCH   6   7
ATOM      7  CG  LEU A   1       1.476   4.446  16.647  0.00  0.00    +0.002 C 
ATOM      8  CD2 LEU A   1       0.131   4.346  17.376  0.00  0.00    +0.000 C 
ATOM      9  CD1 LEU A   1       1.727   3.159  15.879  0.00  0.00    +0.000 C 
ENDBRANCH   6   7
ENDBRANCH   1   6
TORSDOF 4
REMARK  Name = ../refined-set-2016/3k00/3k00_pocket.pdb
REMARK  256 active torsions:
REMARK  status: ('A' for Active; 'I' for Inactive)
REMARK    1  A    between atoms: _1  and  _3
REMARK    2  A    between atoms: _3  and  _4
REMARK    3  A    between atoms: _3  and  _6
REMARK    4  A    between atoms: _6  and  _7
REMARK    5  A    between atoms: _10  and  _12
REMARK    6  A    between atoms: _12  and  _13
REMARK    7  A    between atoms: _12  and  _15
REMARK    8  A    between atoms: _15  and  _16
REMARK    9  A    between atoms: _19  and  _21
REMARK   10  A    between atoms: _21  and  _22
REMARK   11  A    between atoms: _21  and  _24
REMARK   12  A    between atoms: _24  and  _25
REMARK   13  A    between atoms: _27  and  _29
REMARK   14  A    between atoms: _29  and  _30
REMARK   15  A    between atoms: _29  and  _32
REMARK   16  A    between atoms: _32  and  _33
REMARK   17  A    between atoms: _38  and  _40
REMARK   18  A    between atoms: _40  and  _41
REMARK   19  A    between atoms: _40  and  _43
REMARK   20  A    between atoms: _43  and  _44
REMARK   21  A    between atoms: _44  and  _45
REMARK   22  A    between atoms: _48  and  _50
REMARK   23  A    between atoms: _50  and  _51
REMARK   24  A    between atoms: _54  and  _56
REMARK   25  A    between atoms: _56  and  _57
REMARK   26  A    between atoms: _56  and  _59
REMARK   27  A    between atoms: _59  and  _60
REMARK   28  A    between atoms: _60  and  _61
REMARK   29  A    between atoms: _64  and  _66
REMARK   30  A    between atoms: _66  and  _67
REMARK   31  A    between atoms: _66  and  _69
REMARK   32  A    between atoms: _69  and  _70
REMARK   33  A    between atoms: _70  and  _71
REMARK   34  A    between atoms: _71  and  _72
REMARK   35  A    between atoms: _72  and  _73
REMARK   36  A    between atoms: _77  and  _79
REMARK   37  A    between atoms: _79  and  _80
REMARK   38  A    between atoms: _79  and  _82
REMARK   39  A    between atoms: _82  and  _83
REMARK   40  A    between atoms: _88  and  _89
REMARK   41  A    between atoms: _91  and  _93
REMARK   42  A    between atoms: _93  and  _94
REMARK   43  A    between atoms: _93  and  _96
REMARK   44  A    between atoms: _96  and  _97
REMARK   45  A    between atoms: _102  and  _104
REMARK   46  A    between atoms: _104  and  _105
REMARK   47  A    between atoms: _104  and  _107
REMARK   48  A    between atoms: _111  and  _112
REMARK   49  A    between atoms: _117  and  _119
REMARK   50  A    between atoms: _119  and  _120
REMARK   51  A    between atoms: _119  and  _122
REMARK   52  A    between atoms: _122  and  _123
REMARK   53  A    between atoms: _129  and  _131
REMARK   54  A    between atoms: _131  and  _132
REMARK   55  A    between atoms: _134  and  _136
REMARK   56  A    between atoms: _136  and  _137
REMARK   57  A    between atoms: _136  and  _139
REMARK   58  A    between atoms: _139  and  _140
REMARK   59  A    between atoms: _140  and  _141
REMARK   60  A    between atoms: _144  and  _146
REMARK   61  A    between atoms: _146  and  _147
REMARK   62  A    between atoms: _150  and  _152
REMARK   63  A    between atoms: _152  and  _153
REMARK   64  A    between atoms: _152  and  _155
REMARK   65  A    between atoms: _155  and  _156
REMARK   66  A    between atoms: _161  and  _163
REMARK   67  A    between atoms: _163  and  _164
REMARK   68  A    between atoms: _167  and  _169
REMARK   69  A    between atoms: _169  and  _170
REMARK   70  A    between atoms: _169  and  _172
REMARK   71  A    between atoms: _172  and  _173
REMARK   72  A    between atoms: _173  and  _174
REMARK   73  A    between atoms: _174  and  _175
REMARK   74  A    between atoms: _175  and  _176
REMARK   75  A    between atoms: _180  and  _182
REMARK   76  A    between atoms: _182  and  _183
REMARK   77  A    between atoms: _182  and  _185
REMARK   78  A    between atoms: _185  and  _186
REMARK   79  A    between atoms: _186  and  _187
REMARK   80  A    between atoms: _187  and  _188
REMARK   81  A    between atoms: _188  and  _189
REMARK   82  A    between atoms: _193  and  _195
REMARK   83  A    between atoms: _195  and  _196
REMARK   84  A    between atoms: _195  and  _198
REMARK   85  A    between atoms: _198  and  _199
REMARK   86  A    between atoms: _199  and  _200
REMARK   87  A    between atoms: _200  and  _201
REMARK   88  A    between atoms: _210  and  _212
REMARK   89  A    between atoms: _212  and  _213
REMARK   90  A    between atoms: _212  and  _215
REMARK   91  A    between atoms: _215  and  _216
REMARK   92  A    between atoms: _216  and  _217
REMARK   93  A    between atoms: _220  and  _222
REMARK   94  A    between atoms: _222  and  _223
REMARK   95  A    between atoms: _222  and  _225
REMARK   96  A    between atoms: _228  and  _230
REMARK   97  A    between atoms: _230  and  _231
REMARK   98  A    between atoms: _234  and  _236
REMARK   99  A    between atoms: _236  and  _237
REMARK  100  A    between atoms: _236  and  _239
REMARK  101  A    between atoms: _239  and  _240
REMARK  102  A    between atoms: _250  and  _252
REMARK  103  A    between atoms: _252  and  _253
REMARK  104  A    between atoms: _252  and  _255
REMARK  105  A    between atoms: _258  and  _260
REMARK  106  A    between atoms: _260  and  _261
REMARK  107  A    between atoms: _260  and  _263
REMARK  108  A    between atoms: _263  and  _264
REMARK  109  A    between atoms: _267  and  _269
REMARK  110  A    between atoms: _269  and  _270
REMARK  111  A    between atoms: _269  and  _272
REMARK  112  A    between atoms: _272  and  _273
REMARK  113  A    between atoms: _279  and  _281
REMARK  114  A    between atoms: _281  and  _282
REMARK  115  A    between atoms: _281  and  _284
REMARK  116  A    between atoms: _284  and  _285
REMARK  117  A    between atoms: _285  and  _286
REMARK  118  A    between atoms: _291  and  _293
REMARK  119  A    between atoms: _293  and  _294
REMARK  120  A    between atoms: _293  and  _296
REMARK  121  A    between atoms: _299  and  _301
REMARK  122  A    between atoms: _301  and  _302
REMARK  123  A    between atoms: _301  and  _304
REMARK  124  A    between atoms: _304  and  _305
REMARK  125  A    between atoms: _308  and  _310
REMARK  126  A    between atoms: _310  and  _311
REMARK  127  A    between atoms: _310  and  _313
REMARK  128  A    between atoms: _313  and  _314
REMARK  129  A    between atoms: _317  and  _319
REMARK  130  A    between atoms: _319  and  _320
REMARK  131  A    between atoms: _319  and  _322
REMARK  132  A    between atoms: _322  and  _323
REMARK  133  A    between atoms: _326  and  _328
REMARK  134  A    between atoms: _328  and  _329
REMARK  135  A    between atoms: _328  and  _331
REMARK  136  A    between atoms: _331  and  _332
REMARK  137  A    between atoms: _335  and  _337
REMARK  138  A    between atoms: _337  and  _338
REMARK  139  A    between atoms: _337  and  _340
REMARK  140  A    between atoms: _340  and  _341
REMARK  141  A    between atoms: _341  and  _342
REMARK  142  A    between atoms: _342  and  _343
REMARK  143  A    between atoms: _352  and  _354
REMARK  144  A    between atoms: _354  and  _355
REMARK  145  A    between atoms: _354  and  _357
REMARK  146  A    between atoms: _357  and  _358
REMARK  147  A    between atoms: _361  and  _363
REMARK  148  A    between atoms: _363  and  _364
REMARK  149  A    between atoms: _363  and  _366
REMARK  150  A    between atoms: _366  and  _367
REMARK  151  A    between atoms: _371  and  _372
REMARK  152  A    between atoms: _377  and  _379
REMARK  153  A    between atoms: _379  and  _380
REMARK  154  A    between atoms: _379  and  _382
REMARK  155  A    between atoms: _382  and  _383
REMARK  156  A    between atoms: _388  and  _389
REMARK  157  A    between atoms: _391  and  _393
REMARK  158  A    between atoms: _393  and  _394
REMARK  159  A    between atoms: _393  and  _396
REMARK  160  A    between atoms: _396  and  _397
REMARK  161  A    between atoms: _407  and  _409
REMARK  162  A    between atoms: _409  and  _410
REMARK  163  A    between atoms: _409  and  _412
REMARK  164  A    between atoms: _412  and  _413
REMARK  165  A    between atoms: _419  and  _421
REMARK  166  A    between atoms: _421  and  _422
REMARK  167  A    between atoms: _421  and  _424
REMARK  168  A    between atoms: _424  and  _425
REMARK  169  A    between atoms: _428  and  _430
REMARK  170  A    between atoms: _430  and  _431
REMARK  171  A    between atoms: _430  and  _433
REMARK  172  A    between atoms: _433  and  _434
REMARK  173  A    between atoms: _444  and  _446
REMARK  174  A    between atoms: _446  and  _447
REMARK  175  A    between atoms: _446  and  _449
REMARK  176  A    between atoms: _449  and  _450
REMARK  177  A    between atoms: _450  and  _451
REMARK  178  A    between atoms: _453  and  _455
REMARK  179  A    between atoms: _455  and  _456
REMARK  180  A    between atoms: _455  and  _458
REMARK  181  A    between atoms: _458  and  _459
REMARK  182  A    between atoms: _464  and  _466
REMARK  183  A    between atoms: _466  and  _467
REMARK  184  A    between atoms: _470  and  _471
REMARK  185  A    between atoms: _476  and  _478
REMARK  186  A    between atoms: _478  and  _479
REMARK  187  A    between atoms: _478  and  _481
REMARK  188  A    between atoms: _481  and  _482
REMARK  189  A    between atoms: _492  and  _494
REMARK  190  A    between atoms: _494  and  _495
REMARK  191  A    between atoms: _499  and  _500
REMARK  192  A    between atoms: _505  and  _507
REMARK  193  A    between atoms: _507  and  _508
REMARK  194  A    between atoms: _507  and  _510
REMARK  195  A    between atoms: _510  and  _511
REMARK  196  A    between atoms: _511  and  _512
REMARK  197  A    between atoms: _517  and  _519
REMARK  198  A    between atoms: _519  and  _520
REMARK  199  A    between atoms: _522  and  _524
REMARK  200  A    between atoms: _524  and  _525
REMARK  201  A    between atoms: _527  and  _529
REMARK  202  A    between atoms: _529  and  _530
REMARK  203  A    between atoms: _529  and  _532
REMARK  204  A    between atoms: _532  and  _533
REMARK  205  A    between atoms: _543  and  _545
REMARK  206  A    between atoms: _545  and  _546
REMARK  207  A    between atoms: _545  and  _548
REMARK  208  A    between atoms: _548  and  _549
REMARK  209  A    between atoms: _552  and  _554
REMARK  210  A    between atoms: _554  and  _555
REMARK  211  A    between atoms: _554  and  _557
REMARK  212  A    between atoms: _557  and  _558
REMARK  213  A    between atoms: _561  and  _563
REMARK  214  A    between atoms: _563  and  _564
REMARK  215  A    between atoms: _563  and  _566
REMARK  216  A    between atoms: _566  and  _567
REMARK  217  A    between atoms: _567  and  _568
REMARK  218  A    between atoms: _568  and  _569
REMARK  219  A    between atoms: _578  and  _580
REMARK  220  A    between atoms: _580  and  _581
REMARK  221  A    between atoms: _580  and  _583
REMARK  222  A    between atoms: _583  and  _584
REMARK  223  A    between atoms: _594  and  _596
REMARK  224  A    between atoms: _596  and  _597
REMARK  225  A    between atoms: _600  and  _602
REMARK  226  A    between atoms: _602  and  _603
REMARK  227  A    between atoms: _602  and  _605
REMARK  228  A    between atoms: _605  and  _606
REMARK  229  A    between atoms: _606  and  _607
REMARK  230  A    between atoms: _610  and  _612
REMARK  231  A    between atoms: _612  and  _613
REMARK  232  A    between atoms: _615  and  _617
REMARK  233  A    between atoms: _617  and  _618
REMARK  234  A    between atoms: _617  and  _620
REMARK  235  A    between atoms: _620  and  _621
REMARK  236  A    between atoms: _626  and  _628
REMARK  237  A    between atoms: _628  and  _629
REMARK  238  A    between atoms: _632  and  _634
REMARK  239  A    between atoms: _634  and  _635
REMARK  240  A    between atoms: _634  and  _637
REMARK  241  A    between atoms: _637  and  _638
REMARK  242  A    between atoms: _641  and  _643
REMARK  243  A    between atoms: _643  and  _644
REMARK  244  A    between atoms: _643  and  _646
REMARK  245  A    between atoms: _646  and  _647
REMARK  246  A    between atoms: _653  and  _655
REMARK  247  A    between atoms: _655  and  _656
REMARK  248  A    between atoms: _655  and  _658
REMARK  249  A    between atoms: _658  and  _659
REMARK  250  A    between atoms: _659  and  _660
REMARK  251  A    between atoms: _663  and  _665
REMARK  252  A    between atoms: _665  and  _666
REMARK  253  A    between atoms: _665  and  _668
REMARK  254  A    between atoms: _668  and  _669
REMARK  255  A    between atoms: _669  and  _670
REMARK  256  A    between atoms: _670  and  _671
REMARK                            x       y       z     vdW  Elec       q    Type
REMARK                         _______ _______ _______ _____ _____    ______ ____
ROOT
ATOM      1  NE  ARG A   1      -0.035  -8.531  28.344  0.00  0.00    -0.265 N 
ATOM      2  HE  ARG A   1       0.383  -7.726  28.853  0.00  0.00    +0.259 HD
ATOM      3  CZ  ARG A   1      -0.843  -8.270  27.320  0.00  0.00    +0.342 C 
ATOM      4  NH2 ARG A   1      -1.077  -7.013  26.960  0.00  0.00    -0.292 N 
ATOM      5 HH21 ARG A   1      -0.628  -6.231  27.479  0.00  0.00    +0.255 HD
ATOM      6 HH22 ARG A   1      -1.709  -6.810  26.159  0.00  0.00    +0.255 HD
ATOM      7  NH1 ARG A   1      -1.403  -9.262  26.643  0.00  0.00    -0.292 N 
ATOM      8 HH11 ARG A   1      -1.211 -10.248  26.912  0.00  0.00    +0.255 HD
ATOM      9 HH12 ARG A   1      -2.034  -9.054  25.843  0.00  0.00    +0.255 HD
ENDROOT
BRANCH   1  10
ATOM     10  CD  ARG A   1       0.302  -9.878  28.799  0.00  0.00    +0.174 C 
BRANCH  10  11
ATOM     11  CG  ARG A   1       1.252  -9.869  29.967  0.00  0.00    +0.045 C 
BRANCH  11  12
ATOM     12  CB  ARG A   1       0.519  -9.531  31.240  0.00  0.00    +0.029 C 
BRANCH  12  13
ATOM     13  CA  ARG A   1       1.444  -9.231  32.414  0.00  0.00    +0.133 C 
BRANCH  13  14
ATOM     14  N   ARG A   1       2.016  -7.910  32.279  0.00  0.00    -0.239 NA
ATOM     15  H   ARG A   1       2.330  -7.579  31.344  0.00  0.00    +0.142 HD
ENDBRANCH  13  14
BRANCH  13  16
ATOM     16  C   ARG A   1       2.539 -10.283  32.478  0.00  0.00    +0.224 C 
ATOM     17  O   ARG A   1       3.720  -9.991  32.206  0.00  0.00    -0.287 OA
ENDBRANCH  13  16
ENDBRANCH  12  13
ENDBRANCH  11  12
ENDBRANCH  10  11
ENDBRANCH   1  10
TORSDOF 6
REMARK  Name = ../refined-set-2016/3k00/3k00_pocket.pdb
REMARK  256 active torsions:
REMARK  status: ('A' for Active; 'I' for Inactive)
REMARK    1  A    between atoms: _1  and  _3
REMARK    2  A    between atoms: _3  and  _4
REMARK    3  A    between atoms: _3  and  _6
REMARK    4  A    between atoms: _6  and  _7
REMARK    5  A    between atoms: _10  and  _12
REMARK    6  A    between atoms: _12  and  _13
REMARK    7  A    between atoms: _12  and  _15
REMARK    8  A    between atoms: _15  and  _16
REMARK    9  A    between atoms: _19  and  _21
REMARK   10  A    between atoms: _21  and  _22
REMARK   11  A    between atoms: _21  and  _24
REMARK   12  A    between atoms: _24  and  _25
REMARK   13  A    between atoms: _27  and  _29
REMARK   14  A    between atoms: _29  and  _30
REMARK   15  A    between atoms: _29  and  _32
REMARK   16  A    between atoms: _32  and  _33
REMARK   17  A    between atoms: _38  and  _40
REMARK   18  A    between atoms: _40  and  _41
REMARK   19  A    between atoms: _40  and  _43
REMARK   20  A    between atoms: _43  and  _44
REMARK   21  A    between atoms: _44  and  _45
REMARK   22  A    between atoms: _48  and  _50
REMARK   23  A    between atoms: _50  and  _51
REMARK   24  A    between atoms: _54  and  _56
REMARK   25  A    between atoms: _56  and  _57
REMARK   26  A    between atoms: _56  and  _59
REMARK   27  A    between atoms: _59  and  _60
REMARK   28  A    between atoms: _60  and  _61
REMARK   29  A    between atoms: _64  and  _66
REMARK   30  A    between atoms: _66  and  _67
REMARK   31  A    between atoms: _66  and  _69
REMARK   32  A    between atoms: _69  and  _70
REMARK   33  A    between atoms: _70  and  _71
REMARK   34  A    between atoms: _71  and  _72
REMARK   35  A    between atoms: _72  and  _73
REMARK   36  A    between atoms: _77  and  _79
REMARK   37  A    between atoms: _79  and  _80
REMARK   38  A    between atoms: _79  and  _82
REMARK   39  A    between atoms: _82  and  _83
REMARK   40  A    between atoms: _88  and  _89
REMARK   41  A    between atoms: _91  and  _93
REMARK   42  A    between atoms: _93  and  _94
REMARK   43  A    between atoms: _93  and  _96
REMARK   44  A    between atoms: _96  and  _97
REMARK   45  A    between atoms: _102  and  _104
REMARK   46  A    between atoms: _104  and  _105
REMARK   47  A    between atoms: _104  and  _107
REMARK   48  A    between atoms: _111  and  _112
REMARK   49  A    between atoms: _117  and  _119
REMARK   50  A    between atoms: _119  and  _120
REMARK   51  A    between atoms: _119  and  _122
REMARK   52  A    between atoms: _122  and  _123
REMARK   53  A    between atoms: _129  and  _131
REMARK   54  A    between atoms: _131  and  _132
REMARK   55  A    between atoms: _134  and  _136
REMARK   56  A    between atoms: _136  and  _137
REMARK   57  A    between atoms: _136  and  _139
REMARK   58  A    between atoms: _139  and  _140
REMARK   59  A    between atoms: _140  and  _141
REMARK   60  A    between atoms: _144  and  _146
REMARK   61  A    between atoms: _146  and  _147
REMARK   62  A    between atoms: _150  and  _152
REMARK   63  A    between atoms: _152  and  _153
REMARK   64  A    between atoms: _152  and  _155
REMARK   65  A    between atoms: _155  and  _156
REMARK   66  A    between atoms: _161  and  _163
REMARK   67  A    between atoms: _163  and  _164
REMARK   68  A    between atoms: _167  and  _169
REMARK   69  A    between atoms: _169  and  _170
REMARK   70  A    between atoms: _169  and  _172
REMARK   71  A    between atoms: _172  and  _173
REMARK   72  A    between atoms: _173  and  _174
REMARK   73  A    between atoms: _174  and  _175
REMARK   74  A    between atoms: _175  and  _176
REMARK   75  A    between atoms: _180  and  _182
REMARK   76  A    between atoms: _182  and  _183
REMARK   77  A    between atoms: _182  and  _185
REMARK   78  A    between atoms: _185  and  _186
REMARK   79  A    between atoms: _186  and  _187
REMARK   80  A    between atoms: _187  and  _188
REMARK   81  A    between atoms: _188  and  _189
REMARK   82  A    between atoms: _193  and  _195
REMARK   83  A    between atoms: _195  and  _196
REMARK   84  A    between atoms: _195  and  _198
REMARK   85  A    between atoms: _198  and  _199
REMARK   86  A    between atoms: _199  and  _200
REMARK   87  A    between atoms: _200  and  _201
REMARK   88  A    between atoms: _210  and  _212
REMARK   89  A    between atoms: _212  and  _213
REMARK   90  A    between atoms: _212  and  _215
REMARK   91  A    between atoms: _215  and  _216
REMARK   92  A    between atoms: _216  and  _217
REMARK   93  A    between atoms: _220  and  _222
REMARK   94  A    between atoms: _222  and  _223
REMARK   95  A    between atoms: _222  and  _225
REMARK   96  A    between atoms: _228  and  _230
REMARK   97  A    between atoms: _230  and  _231
REMARK   98  A    between atoms: _234  and  _236
REMARK   99  A    between atoms: _236  and  _237
REMARK  100  A    between atoms: _236  and  _239
REMARK  101  A    between atoms: _239  and  _240
REMARK  102  A    between atoms: _250  and  _252
REMARK  103  A    between atoms: _252  and  _253
REMARK  104  A    between atoms: _252  and  _255
REMARK  105  A    between atoms: _258  and  _260
REMARK  106  A    between atoms: _260  and  _261
REMARK  107  A    between atoms: _260  and  _263
REMARK  108  A    between atoms: _263  and  _264
REMARK  109  A    between atoms: _267  and  _269
REMARK  110  A    between atoms: _269  and  _270
REMARK  111  A    between atoms: _269  and  _272
REMARK  112  A    between atoms: _272  and  _273
REMARK  113  A    between atoms: _279  and  _281
REMARK  114  A    between atoms: _281  and  _282
REMARK  115  A    between atoms: _281  and  _284
REMARK  116  A    between atoms: _284  and  _285
REMARK  117  A    between atoms: _285  and  _286
REMARK  118  A    between atoms: _291  and  _293
REMARK  119  A    between atoms: _293  and  _294
REMARK  120  A    between atoms: _293  and  _296
REMARK  121  A    between atoms: _299  and  _301
REMARK  122  A    between atoms: _301  and  _302
REMARK  123  A    between atoms: _301  and  _304
REMARK  124  A    between atoms: _304  and  _305
REMARK  125  A    between atoms: _308  and  _310
REMARK  126  A    between atoms: _310  and  _311
REMARK  127  A    between atoms: _310  and  _313
REMARK  128  A    between atoms: _313  and  _314
REMARK  129  A    between atoms: _317  and  _319
REMARK  130  A    between atoms: _319  and  _320
REMARK  131  A    between atoms: _319  and  _322
REMARK  132  A    between atoms: _322  and  _323
REMARK  133  A    between atoms: _326  and  _328
REMARK  134  A    between atoms: _328  and  _329
REMARK  135  A    between atoms: _328  and  _331
REMARK  136  A    between atoms: _331  and  _332
REMARK  137  A    between atoms: _335  and  _337
REMARK  138  A    between atoms: _337  and  _338
REMARK  139  A    between atoms: _337  and  _340
REMARK  140  A    between atoms: _340  and  _341
REMARK  141  A    between atoms: _341  and  _342
REMARK  142  A    between atoms: _342  and  _343
REMARK  143  A    between atoms: _352  and  _354
REMARK  144  A    between atoms: _354  and  _355
REMARK  145  A    between atoms: _354  and  _357
REMARK  146  A    between atoms: _357  and  _358
REMARK  147  A    between atoms: _361  and  _363
REMARK  148  A    between atoms: _363  and  _364
REMARK  149  A    between atoms: _363  and  _366
REMARK  150  A    between atoms: _366  and  _367
REMARK  151  A    between atoms: _371  and  _372
REMARK  152  A    between atoms: _377  and  _379
REMARK  153  A    between atoms: _379  and  _380
REMARK  154  A    between atoms: _379  and  _382
REMARK  155  A    between atoms: _382  and  _383
REMARK  156  A    between atoms: _388  and  _389
REMARK  157  A    between atoms: _391  and  _393
REMARK  158  A    between atoms: _393  and  _394
REMARK  159  A    between atoms: _393  and  _396
REMARK  160  A    between atoms: _396  and  _397
REMARK  161  A    between atoms: _407  and  _409
REMARK  162  A    between atoms: _409  and  _410
REMARK  163  A    between atoms: _409  and  _412
REMARK  164  A    between atoms: _412  and  _413
REMARK  165  A    between atoms: _419  and  _421
REMARK  166  A    between atoms: _421  and  _422
REMARK  167  A    between atoms: _421  and  _424
REMARK  168  A    between atoms: _424  and  _425
REMARK  169  A    between atoms: _428  and  _430
REMARK  170  A    between atoms: _430  and  _431
REMARK  171  A    between atoms: _430  and  _433
REMARK  172  A    between atoms: _433  and  _434
REMARK  173  A    between atoms: _444  and  _446
REMARK  174  A    between atoms: _446  and  _447
REMARK  175  A    between atoms: _446  and  _449
REMARK  176  A    between atoms: _449  and  _450
REMARK  177  A    between atoms: _450  and  _451
REMARK  178  A    between atoms: _453  and  _455
REMARK  179  A    between atoms: _455  and  _456
REMARK  180  A    between atoms: _455  and  _458
REMARK  181  A    between atoms: _458  and  _459
REMARK  182  A    between atoms: _464  and  _466
REMARK  183  A    between atoms: _466  and  _467
REMARK  184  A    between atoms: _470  and  _471
REMARK  185  A    between atoms: _476  and  _478
REMARK  186  A    between atoms: _478  and  _479
REMARK  187  A    between atoms: _478  and  _481
REMARK  188  A    between atoms: _481  and  _482
REMARK  189  A    between atoms: _492  and  _494
REMARK  190  A    between atoms: _494  and  _495
REMARK  191  A    between atoms: _499  and  _500
REMARK  192  A    between atoms: _505  and  _507
REMARK  193  A    between atoms: _507  and  _508
REMARK  194  A    between atoms: _507  and  _510
REMARK  195  A    between atoms: _510  and  _511
REMARK  196  A    between atoms: _511  and  _512
REMARK  197  A    between atoms: _517  and  _519
REMARK  198  A    between atoms: _519  and  _520
REMARK  199  A    between atoms: _522  and  _524
REMARK  200  A    between atoms: _524  and  _525
REMARK  201  A    between atoms: _527  and  _529
REMARK  202  A    between atoms: _529  and  _530
REMARK  203  A    between atoms: _529  and  _532
REMARK  204  A    between atoms: _532  and  _533
REMARK  205  A    between atoms: _543  and  _545
REMARK  206  A    between atoms: _545  and  _546
REMARK  207  A    between atoms: _545  and  _548
REMARK  208  A    between atoms: _548  and  _549
REMARK  209  A    between atoms: _552  and  _554
REMARK  210  A    between atoms: _554  and  _555
REMARK  211  A    between atoms: _554  and  _557
REMARK  212  A    between atoms: _557  and  _558
REMARK  213  A    between atoms: _561  and  _563
REMARK  214  A    between atoms: _563  and  _564
REMARK  215  A    between atoms: _563  and  _566
REMARK  216  A    between atoms: _566  and  _567
REMARK  217  A    between atoms: _567  and  _568
REMARK  218  A    between atoms: _568  and  _569
REMARK  219  A    between atoms: _578  and  _580
REMARK  220  A    between atoms: _580  and  _581
REMARK  221  A    between atoms: _580  and  _583
REMARK  222  A    between atoms: _583  and  _584
REMARK  223  A    between atoms: _594  and  _596
REMARK  224  A    between atoms: _596  and  _597
REMARK  225  A    between atoms: _600  and  _602
REMARK  226  A    between atoms: _602  and  _603
REMARK  227  A    between atoms: _602  and  _605
REMARK  228  A    between atoms: _605  and  _606
REMARK  229  A    between atoms: _606  and  _607
REMARK  230  A    between atoms: _610  and  _612
REMARK  231  A    between atoms: _612  and  _613
REMARK  232  A    between atoms: _615  and  _617
REMARK  233  A    between atoms: _617  and  _618
REMARK  234  A    between atoms: _617  and  _620
REMARK  235  A    between atoms: _620  and  _621
REMARK  236  A    between atoms: _626  and  _628
REMARK  237  A    between atoms: _628  and  _629
REMARK  238  A    between atoms: _632  and  _634
REMARK  239  A    between atoms: _634  and  _635
REMARK  240  A    between atoms: _634  and  _637
REMARK  241  A    between atoms: _637  and  _638
REMARK  242  A    between atoms: _641  and  _643
REMARK  243  A    between atoms: _643  and  _644
REMARK  244  A    between atoms: _643  and  _646
REMARK  245  A    between atoms: _646  and  _647
REMARK  246  A    between atoms: _653  and  _655
REMARK  247  A    between atoms: _655  and  _656
REMARK  248  A    between atoms: _655  and  _658
REMARK  249  A    between atoms: _658  and  _659
REMARK  250  A    between atoms: _659  and  _660
REMARK  251  A    between atoms: _663  and  _665
REMARK  252  A    between atoms: _665  and  _666
REMARK  253  A    between atoms: _665  and  _668
REMARK  254  A    between atoms: _668  and  _669
REMARK  255  A    between atoms: _669  and  _670
REMARK  256  A    between atoms: _670  and  _671
REMARK                            x       y       z     vdW  Elec       q    Type
REMARK                         _______ _______ _______ _____ _____    ______ ____
ROOT
ATOM      1  CG  TRP A   1       6.071 -11.000  29.317  0.00  0.00    -0.002 A 
ATOM      2  CD1 TRP A   1       6.785 -10.230  30.190  0.00  0.00    +0.068 A 
ATOM      3  NE1 TRP A   1       6.364  -8.925  30.124  0.00  0.00    -0.352 N 
ATOM      4  HE1 TRP A   1       6.759  -8.134  30.672  0.00  0.00    +0.166 HD
ATOM      5  CE2 TRP A   1       5.339  -8.833  29.219  0.00  0.00    +0.056 A 
ATOM      6  CZ2 TRP A   1       4.585  -7.717  28.813  0.00  0.00    +0.017 A 
ATOM      7  CH2 TRP A   1       3.605  -7.925  27.872  0.00  0.00    +0.001 A 
ATOM      8  CZ3 TRP A   1       3.371  -9.206  27.328  0.00  0.00    +0.000 A 
ATOM      9  CE3 TRP A   1       4.126 -10.306  27.725  0.00  0.00    +0.001 A 
ATOM     10  CD2 TRP A   1       5.125 -10.124  28.691  0.00  0.00    +0.013 A 
ENDROOT
BRANCH   1  11
ATOM     11  CB  TRP A   1       6.218 -12.475  29.090  0.00  0.00    +0.053 C 
BRANCH  11  12
ATOM     12  CA  TRP A   1       4.979 -13.258  29.534  0.00  0.00    +0.137 C 
BRANCH  12  13
ATOM     13  N   TRP A   1       4.617 -12.951  30.912  0.00  0.00    -0.239 NA
ATOM     14  H   TRP A   1       5.364 -12.723  31.599  0.00  0.00    +0.142 HD
ENDBRANCH  12  13
BRANCH  12  15
ATOM     15  C   TRP A   1       5.148 -14.755  29.377  0.00  0.00    +0.224 C 
ATOM     16  O   TRP A   1       6.266 -15.282  29.304  0.00  0.00    -0.287 OA
ENDBRANCH  12  15
ENDBRANCH  11  12
ENDBRANCH   1  11
TORSDOF 4
REMARK  Name = ../refined-set-2016/3k00/3k00_pocket.pdb
REMARK  256 active torsions:
REMARK  status: ('A' for Active; 'I' for Inactive)
REMARK    1  A    between atoms: _1  and  _3
REMARK    2  A    between atoms: _3  and  _4
REMARK    3  A    between atoms: _3  and  _6
REMARK    4  A    between atoms: _6  and  _7
REMARK    5  A    between atoms: _10  and  _12
REMARK    6  A    between atoms: _12  and  _13
REMARK    7  A    between atoms: _12  and  _15
REMARK    8  A    between atoms: _15  and  _16
REMARK    9  A    between atoms: _19  and  _21
REMARK   10  A    between atoms: _21  and  _22
REMARK   11  A    between atoms: _21  and  _24
REMARK   12  A    between atoms: _24  and  _25
REMARK   13  A    between atoms: _27  and  _29
REMARK   14  A    between atoms: _29  and  _30
REMARK   15  A    between atoms: _29  and  _32
REMARK   16  A    between atoms: _32  and  _33
REMARK   17  A    between atoms: _38  and  _40
REMARK   18  A    between atoms: _40  and  _41
REMARK   19  A    between atoms: _40  and  _43
REMARK   20  A    between atoms: _43  and  _44
REMARK   21  A    between atoms: _44  and  _45
REMARK   22  A    between atoms: _48  and  _50
REMARK   23  A    between atoms: _50  and  _51
REMARK   24  A    between atoms: _54  and  _56
REMARK   25  A    between atoms: _56  and  _57
REMARK   26  A    between atoms: _56  and  _59
REMARK   27  A    between atoms: _59  and  _60
REMARK   28  A    between atoms: _60  and  _61
REMARK   29  A    between atoms: _64  and  _66
REMARK   30  A    between atoms: _66  and  _67
REMARK   31  A    between atoms: _66  and  _69
REMARK   32  A    between atoms: _69  and  _70
REMARK   33  A    between atoms: _70  and  _71
REMARK   34  A    between atoms: _71  and  _72
REMARK   35  A    between atoms: _72  and  _73
REMARK   36  A    between atoms: _77  and  _79
REMARK   37  A    between atoms: _79  and  _80
REMARK   38  A    between atoms: _79  and  _82
REMARK   39  A    between atoms: _82  and  _83
REMARK   40  A    between atoms: _88  and  _89
REMARK   41  A    between atoms: _91  and  _93
REMARK   42  A    between atoms: _93  and  _94
REMARK   43  A    between atoms: _93  and  _96
REMARK   44  A    between atoms: _96  and  _97
REMARK   45  A    between atoms: _102  and  _104
REMARK   46  A    between atoms: _104  and  _105
REMARK   47  A    between atoms: _104  and  _107
REMARK   48  A    between atoms: _111  and  _112
REMARK   49  A    between atoms: _117  and  _119
REMARK   50  A    between atoms: _119  and  _120
REMARK   51  A    between atoms: _119  and  _122
REMARK   52  A    between atoms: _122  and  _123
REMARK   53  A    between atoms: _129  and  _131
REMARK   54  A    between atoms: _131  and  _132
REMARK   55  A    between atoms: _134  and  _136
REMARK   56  A    between atoms: _136  and  _137
REMARK   57  A    between atoms: _136  and  _139
REMARK   58  A    between atoms: _139  and  _140
REMARK   59  A    between atoms: _140  and  _141
REMARK   60  A    between atoms: _144  and  _146
REMARK   61  A    between atoms: _146  and  _147
REMARK   62  A    between atoms: _150  and  _152
REMARK   63  A    between atoms: _152  and  _153
REMARK   64  A    between atoms: _152  and  _155
REMARK   65  A    between atoms: _155  and  _156
REMARK   66  A    between atoms: _161  and  _163
REMARK   67  A    between atoms: _163  and  _164
REMARK   68  A    between atoms: _167  and  _169
REMARK   69  A    between atoms: _169  and  _170
REMARK   70  A    between atoms: _169  and  _172
REMARK   71  A    between atoms: _172  and  _173
REMARK   72  A    between atoms: _173  and  _174
REMARK   73  A    between atoms: _174  and  _175
REMARK   74  A    between atoms: _175  and  _176
REMARK   75  A    between atoms: _180  and  _182
REMARK   76  A    between atoms: _182  and  _183
REMARK   77  A    between atoms: _182  and  _185
REMARK   78  A    between atoms: _185  and  _186
REMARK   79  A    between atoms: _186  and  _187
REMARK   80  A    between atoms: _187  and  _188
REMARK   81  A    between atoms: _188  and  _189
REMARK   82  A    between atoms: _193  and  _195
REMARK   83  A    between atoms: _195  and  _196
REMARK   84  A    between atoms: _195  and  _198
REMARK   85  A    between atoms: _198  and  _199
REMARK   86  A    between atoms: _199  and  _200
REMARK   87  A    between atoms: _200  and  _201
REMARK   88  A    between atoms: _210  and  _212
REMARK   89  A    between atoms: _212  and  _213
REMARK   90  A    between atoms: _212  and  _215
REMARK   91  A    between atoms: _215  and  _216
REMARK   92  A    between atoms: _216  and  _217
REMARK   93  A    between atoms: _220  and  _222
REMARK   94  A    between atoms: _222  and  _223
REMARK   95  A    between atoms: _222  and  _225
REMARK   96  A    between atoms: _228  and  _230
REMARK   97  A    between atoms: _230  and  _231
REMARK   98  A    between atoms: _234  and  _236
REMARK   99  A    between atoms: _236  and  _237
REMARK  100  A    between atoms: _236  and  _239
REMARK  101  A    between atoms: _239  and  _240
REMARK  102  A    between atoms: _250  and  _252
REMARK  103  A    between atoms: _252  and  _253
REMARK  104  A    between atoms: _252  and  _255
REMARK  105  A    between atoms: _258  and  _260
REMARK  106  A    between atoms: _260  and  _261
REMARK  107  A    between atoms: _260  and  _263
REMARK  108  A    between atoms: _263  and  _264
REMARK  109  A    between atoms: _267  and  _269
REMARK  110  A    between atoms: _269  and  _270
REMARK  111  A    between atoms: _269  and  _272
REMARK  112  A    between atoms: _272  and  _273
REMARK  113  A    between atoms: _279  and  _281
REMARK  114  A    between atoms: _281  and  _282
REMARK  115  A    between atoms: _281  and  _284
REMARK  116  A    between atoms: _284  and  _285
REMARK  117  A    between atoms: _285  and  _286
REMARK  118  A    between atoms: _291  and  _293
REMARK  119  A    between atoms: _293  and  _294
REMARK  120  A    between atoms: _293  and  _296
REMARK  121  A    between atoms: _299  and  _301
REMARK  122  A    between atoms: _301  and  _302
REMARK  123  A    between atoms: _301  and  _304
REMARK  124  A    between atoms: _304  and  _305
REMARK  125  A    between atoms: _308  and  _310
REMARK  126  A    between atoms: _310  and  _311
REMARK  127  A    between atoms: _310  and  _313
REMARK  128  A    between atoms: _313  and  _314
REMARK  129  A    between atoms: _317  and  _319
REMARK  130  A    between atoms: _319  and  _320
REMARK  131  A    between atoms: _319  and  _322
REMARK  132  A    between atoms: _322  and  _323
REMARK  133  A    between atoms: _326  and  _328
REMARK  134  A    between atoms: _328  and  _329
REMARK  135  A    between atoms: _328  and  _331
REMARK  136  A    between atoms: _331  and  _332
REMARK  137  A    between atoms: _335  and  _337
REMARK  138  A    between atoms: _337  and  _338
REMARK  139  A    between atoms: _337  and  _340
REMARK  140  A    between atoms: _340  and  _341
REMARK  141  A    between atoms: _341  and  _342
REMARK  142  A    between atoms: _342  and  _343
REMARK  143  A    between atoms: _352  and  _354
REMARK  144  A    between atoms: _354  and  _355
REMARK  145  A    between atoms: _354  and  _357
REMARK  146  A    between atoms: _357  and  _358
REMARK  147  A    between atoms: _361  and  _363
REMARK  148  A    between atoms: _363  and  _364
REMARK  149  A    between atoms: _363  and  _366
REMARK  150  A    between atoms: _366  and  _367
REMARK  151  A    between atoms: _371  and  _372
REMARK  152  A    between atoms: _377  and  _379
REMARK  153  A    between atoms: _379  and  _380
REMARK  154  A    between atoms: _379  and  _382
REMARK  155  A    between atoms: _382  and  _383
REMARK  156  A    between atoms: _388  and  _389
REMARK  157  A    between atoms: _391  and  _393
REMARK  158  A    between atoms: _393  and  _394
REMARK  159  A    between atoms: _393  and  _396
REMARK  160  A    between atoms: _396  and  _397
REMARK  161  A    between atoms: _407  and  _409
REMARK  162  A    between atoms: _409  and  _410
REMARK  163  A    between atoms: _409  and  _412
REMARK  164  A    between atoms: _412  and  _413
REMARK  165  A    between atoms: _419  and  _421
REMARK  166  A    between atoms: _421  and  _422
REMARK  167  A    between atoms: _421  and  _424
REMARK  168  A    between atoms: _424  and  _425
REMARK  169  A    between atoms: _428  and  _430
REMARK  170  A    between atoms: _430  and  _431
REMARK  171  A    between atoms: _430  and  _433
REMARK  172  A    between atoms: _433  and  _434
REMARK  173  A    between atoms: _444  and  _446
REMARK  174  A    between atoms: _446  and  _447
REMARK  175  A    between atoms: _446  and  _449
REMARK  176  A    between atoms: _449  and  _450
REMARK  177  A    between atoms: _450  and  _451
REMARK  178  A    between atoms: _453  and  _455
REMARK  179  A    between atoms: _455  and  _456
REMARK  180  A    between atoms: _455  and  _458
REMARK  181  A    between atoms: _458  and  _459
REMARK  182  A    between atoms: _464  and  _466
REMARK  183  A    between atoms: _466  and  _467
REMARK  184  A    between atoms: _470  and  _471
REMARK  185  A    between atoms: _476  and  _478
REMARK  186  A    between atoms: _478  and  _479
REMARK  187  A    between atoms: _478  and  _481
REMARK  188  A    between atoms: _481  and  _482
REMARK  189  A    between atoms: _492  and  _494
REMARK  190  A    between atoms: _494  and  _495
REMARK  191  A    between atoms: _499  and  _500
REMARK  192  A    between atoms: _505  and  _507
REMARK  193  A    between atoms: _507  and  _508
REMARK  194  A    between atoms: _507  and  _510
REMARK  195  A    between atoms: _510  and  _511
REMARK  196  A    between atoms: _511  and  _512
REMARK  197  A    between atoms: _517  and  _519
REMARK  198  A    between atoms: _519  and  _520
REMARK  199  A    between atoms: _522  and  _524
REMARK  200  A    between atoms: _524  and  _525
REMARK  201  A    between atoms: _527  and  _529
REMARK  202  A    between atoms: _529  and  _530
REMARK  203  A    between atoms: _529  and  _532
REMARK  204  A    between atoms: _532  and  _533
REMARK  205  A    between atoms: _543  and  _545
REMARK  206  A    between atoms: _545  and  _546
REMARK  207  A    between atoms: _545  and  _548
REMARK  208  A    between atoms: _548  and  _549
REMARK  209  A    between atoms: _552  and  _554
REMARK  210  A    between atoms: _554  and  _555
REMARK  211  A    between atoms: _554  and  _557
REMARK  212  A    between atoms: _557  and  _558
REMARK  213  A    between atoms: _561  and  _563
REMARK  214  A    between atoms: _563  and  _564
REMARK  215  A    between atoms: _563  and  _566
REMARK  216  A    between atoms: _566  and  _567
REMARK  217  A    between atoms: _567  and  _568
REMARK  218  A    between atoms: _568  and  _569
REMARK  219  A    between atoms: _578  and  _580
REMARK  220  A    between atoms: _580  and  _581
REMARK  221  A    between atoms: _580  and  _583
REMARK  222  A    between atoms: _583  and  _584
REMARK  223  A    between atoms: _594  and  _596
REMARK  224  A    between atoms: _596  and  _597
REMARK  225  A    between atoms: _600  and  _602
REMARK  226  A    between atoms: _602  and  _603
REMARK  227  A    between atoms: _602  and  _605
REMARK  228  A    between atoms: _605  and  _606
REMARK  229  A    between atoms: _606  and  _607
REMARK  230  A    between atoms: _610  and  _612
REMARK  231  A    between atoms: _612  and  _613
REMARK  232  A    between atoms: _615  and  _617
REMARK  233  A    between atoms: _617  and  _618
REMARK  234  A    between atoms: _617  and  _620
REMARK  235  A    between atoms: _620  and  _621
REMARK  236  A    between atoms: _626  and  _628
REMARK  237  A    between atoms: _628  and  _629
REMARK  238  A    between atoms: _632  and  _634
REMARK  239  A    between atoms: _634  and  _635
REMARK  240  A    between atoms: _634  and  _637
REMARK  241  A    between atoms: _637  and  _638
REMARK  242  A    between atoms: _641  and  _643
REMARK  243  A    between atoms: _643  and  _644
REMARK  244  A    between atoms: _643  and  _646
REMARK  245  A    between atoms: _646  and  _647
REMARK  246  A    between atoms: _653  and  _655
REMARK  247  A    between atoms: _655  and  _656
REMARK  248  A    between atoms: _655  and  _658
REMARK  249  A    between atoms: _658  and  _659
REMARK  250  A    between atoms: _659  and  _660
REMARK  251  A    between atoms: _663  and  _665
REMARK  252  A    between atoms: _665  and  _666
REMARK  253  A    between atoms: _665  and  _668
REMARK  254  A    between atoms: _668  and  _669
REMARK  255  A    between atoms: _669  and  _670
REMARK  256  A    between atoms: _670  and  _671
REMARK                            x       y       z     vdW  Elec       q    Type
REMARK                         _______ _______ _______ _____ _____    ______ ____
ROOT
ATOM      1  CA  ALA A   5      -5.320 -17.332  25.991  0.00  0.00    +0.149 C 
ATOM      2  CB  ALA A   5      -5.020 -18.838  26.062  0.00  0.00    +0.031 C 
ENDROOT
BRANCH   1   4
ATOM      3  C   ASN A   4      -4.084 -15.336  25.338  0.00  0.00    +0.241 C 
ATOM      4  N   ALA A   5      -4.080 -16.594  25.774  0.00  0.00    -0.297 N 
ATOM      5  H   ALA A   5      -3.171 -17.062  25.965  0.00  0.00    +0.150 HD
ATOM      6  O   ASN A   4      -5.132 -14.721  25.111  0.00  0.00    -0.273 OA
BRANCH   3   7
ATOM      7  CA  ASN A   4      -2.698 -14.685  25.126  0.00  0.00    +0.158 C 
BRANCH   7  10
ATOM      8  C   GLY A   3      -1.948 -14.820  27.470  0.00  0.00    +0.243 C 
ATOM      9  O   GLY A   3      -2.935 -14.229  27.930  0.00  0.00    -0.273 OA
ATOM     10  N   ASN A   4      -1.744 -15.035  26.172  0.00  0.00    -0.297 N 
ATOM     11  H   ASN A   4      -0.849 -15.480  25.886  0.00  0.00    +0.150 HD
BRANCH   8  12
ATOM     12  CA  GLY A   3      -0.872 -15.363  28.395  0.00  0.00    +0.176 C 
BRANCH  12  15
ATOM     13  C   GLU A   2      -1.277 -17.725  27.991  0.00  0.00    +0.241 C 
ATOM     14  O   GLU A   2      -2.495 -17.583  28.118  0.00  0.00    -0.273 OA
ATOM     15  N   GLY A   3      -0.425 -16.709  28.044  0.00  0.00    -0.295 N 
ATOM     16  H   GLY A   3       0.580 -16.874  27.832  0.00  0.00    +0.150 HD
BRANCH  13  17
ATOM     17  CA  GLU A   2      -0.677 -19.111  27.759  0.00  0.00    +0.149 C 
BRANCH  17  19
ATOM     18  C   ALA A   1       1.404 -19.047  26.447  0.00  0.00    +0.238 C 
ATOM     19  N   GLU A   2       0.786 -19.120  27.628  0.00  0.00    -0.297 N 
ATOM     20  H   GLU A   2       1.364 -19.186  28.490  0.00  0.00    +0.150 HD
ATOM     21  O   ALA A   1       0.806 -18.862  25.385  0.00  0.00    -0.274 OA
BRANCH  18  22
ATOM     22  CA  ALA A   1       2.931 -19.177  26.459  0.00  0.00    +0.145 C 
ATOM     23  CB  ALA A   1       3.353 -20.648  26.304  0.00  0.00    +0.028 C 
BRANCH  22  24
ATOM     24  N   ALA A   1       3.521 -18.593  27.664  0.00  0.00    -0.238 NA
ATOM     25  H   ALA A   1       4.174 -19.170  28.231  0.00  0.00    +0.142 HD
ENDBRANCH  22  24
ENDBRANCH  18  22
ENDBRANCH  17  19
BRANCH  17  26
ATOM     26  CB  GLU A   2      -1.116 -20.030  28.899  0.00  0.00    +0.041 C 
BRANCH  26  27
ATOM     27  CG  GLU A   2      -0.587 -21.452  28.798  0.00  0.00    +0.116 C 
BRANCH  27  28
ATOM     28  CD  GLU A   2       0.759 -21.644  29.481  0.00  0.00    +0.365 C 
ATOM     29  OE2 GLU A   2       1.382 -20.643  29.904  0.00  0.00    -0.246 OA
ATOM     30  OE1 GLU A   2       1.197 -22.817  29.606  0.00  0.00    -0.246 OA
ENDBRANCH  27  28
ENDBRANCH  26  27
ENDBRANCH  17  26
ENDBRANCH  13  17
ENDBRANCH  12  15
ENDBRANCH   8  12
ENDBRANCH   7  10
BRANCH   7  31
ATOM     31  CB  ASN A   4      -2.093 -15.095  23.767  0.00  0.00    +0.114 C 
BRANCH  31  32
ATOM     32  CG  ASN A   4      -3.099 -15.736  22.838  0.00  0.00    +0.222 C 
ATOM     33  OD1 ASN A   4      -3.038 -16.944  22.567  0.00  0.00    -0.275 OA
ATOM     34  ND2 ASN A   4      -4.046 -14.936  22.349  0.00  0.00    -0.329 N 
ATOM     35 HD21 ASN A   4      -4.058 -13.928  22.604  0.00  0.00    +0.145 HD
ATOM     36 HD22 ASN A   4      -4.773 -15.320  21.712  0.00  0.00    +0.145 HD
ENDBRANCH  31  32
ENDBRANCH   7  31
ENDBRANCH   3   7
ENDBRANCH   1   4
BRANCH   1  37
ATOM     37  C   ALA A   5      -6.120 -16.878  27.229  0.00  0.00    +0.241 C 
ATOM     38  N   LEU A   6      -5.538 -16.009  28.051  0.00  0.00    -0.297 N 
ATOM     39  H   LEU A   6      -4.571 -15.682  27.850  0.00  0.00    +0.150 HD
ATOM     40  O   ALA A   5      -7.254 -17.323  27.432  0.00  0.00    -0.273 OA
BRANCH  38  41
ATOM     41  CA  LEU A   6      -6.244 -15.500  29.247  0.00  0.00    +0.149 C 
BRANCH  41  42
ATOM     42  C   LEU A   6      -7.413 -14.621  28.880  0.00  0.00    +0.241 C 
ATOM     43  O   LEU A   6      -8.269 -14.328  29.719  0.00  0.00    -0.273 OA
ATOM     44  N   PHE A   7      -7.435 -14.158  27.637  0.00  0.00    -0.297 N 
ATOM     45  H   PHE A   7      -6.746 -14.501  26.938  0.00  0.00    +0.150 HD
BRANCH  44  46
ATOM     46  CA  PHE A   7      -8.426 -13.172  27.261  0.00  0.00    +0.153 C 
BRANCH  46  47
ATOM     47  C   PHE A   7      -9.776 -13.753  26.878  0.00  0.00    +0.241 C 
ATOM     48  O   PHE A   7     -10.812 -13.166  27.181  0.00  0.00    -0.273 OA
ATOM     49  N   GLU A   8      -9.784 -14.931  26.261  0.00  0.00    -0.298 N 
ATOM     50  H   GLU A   8      -8.900 -15.461  26.121  0.00  0.00    +0.150 HD
BRANCH  49  51
ATOM     51  CA  GLU A   8     -11.056 -15.468  25.783  0.00  0.00    +0.137 C 
BRANCH  51  52
ATOM     52  C   GLU A   8     -12.067 -15.688  26.926  0.00  0.00    +0.227 C 
ATOM     53  O   GLU A   8     -13.253 -15.403  26.734  0.00  0.00    -0.286 OA
ENDBRANCH  51  52
BRANCH  51  54
ATOM     54  CB  GLU A   8     -10.865 -16.736  24.924  0.00  0.00    +0.039 C 
BRANCH  54  55
ATOM     55  CG  GLU A   8     -12.184 -17.361  24.369  0.00  0.00    +0.116 C 
BRANCH  55  56
ATOM     56  CD  GLU A   8     -12.800 -16.634  23.164  0.00  0.00    +0.365 C 
ATOM     57  OE2 GLU A   8     -12.510 -15.447  22.959  0.00  0.00    -0.246 OA
ATOM     58  OE1 GLU A   8     -13.591 -17.259  22.398  0.00  0.00    -0.246 OA
ENDBRANCH  55  56
ENDBRANCH  54  55
ENDBRANCH  51  54
ENDBRANCH  49  51
ENDBRANCH  46  47
BRANCH  46  59
ATOM     59  CB  PHE A   7      -7.857 -12.228  26.191  0.00  0.00    +0.055 C 
BRANCH  59  60
ATOM     60  CG  PHE A   7      -6.849 -11.279  26.753  0.00  0.00    -0.020 A 
ATOM     61  CD2 PHE A   7      -7.264 -10.179  27.506  0.00  0.00    -0.004 A 
ATOM     62  CE2 PHE A   7      -6.342  -9.310  28.071  0.00  0.00    -0.000 A 
ATOM     63  CZ  PHE A   7      -4.979  -9.539  27.898  0.00  0.00    -0.000 A 
ATOM     64  CE1 PHE A   7      -4.549 -10.644  27.177  0.00  0.00    -0.000 A 
ATOM     65  CD1 PHE A   7      -5.483 -11.518  26.608  0.00  0.00    -0.004 A 
ENDBRANCH  59  60
ENDBRANCH  46  59
ENDBRANCH  44  46
ENDBRANCH  41  42
BRANCH  41  66
ATOM     66  CB  LEU A   6      -5.301 -14.718  30.178  0.00  0.00    +0.029 C 
BRANCH  66  67
ATOM     67  CG  LEU A   6      -4.142 -15.548  30.758  0.00  0.00    +0.002 C 
ATOM     68  CD2 LEU A   6      -4.608 -16.693  31.696  0.00  0.00    +0.000 C 
ATOM     69  CD1 LEU A   6      -3.118 -14.645  31.448  0.00  0.00    +0.000 C 
ENDBRANCH  66  67
ENDBRANCH  41  66
ENDBRANCH  38  41
ENDBRANCH   1  37
TORSDOF 28
REMARK  Name = ../refined-set-2016/3k00/3k00_pocket.pdb
REMARK  256 active torsions:
REMARK  status: ('A' for Active; 'I' for Inactive)
REMARK    1  A    between atoms: _1  and  _3
REMARK    2  A    between atoms: _3  and  _4
REMARK    3  A    between atoms: _3  and  _6
REMARK    4  A    between atoms: _6  and  _7
REMARK    5  A    between atoms: _10  and  _12
REMARK    6  A    between atoms: _12  and  _13
REMARK    7  A    between atoms: _12  and  _15
REMARK    8  A    between atoms: _15  and  _16
REMARK    9  A    between atoms: _19  and  _21
REMARK   10  A    between atoms: _21  and  _22
REMARK   11  A    between atoms: _21  and  _24
REMARK   12  A    between atoms: _24  and  _25
REMARK   13  A    between atoms: _27  and  _29
REMARK   14  A    between atoms: _29  and  _30
REMARK   15  A    between atoms: _29  and  _32
REMARK   16  A    between atoms: _32  and  _33
REMARK   17  A    between atoms: _38  and  _40
REMARK   18  A    between atoms: _40  and  _41
REMARK   19  A    between atoms: _40  and  _43
REMARK   20  A    between atoms: _43  and  _44
REMARK   21  A    between atoms: _44  and  _45
REMARK   22  A    between atoms: _48  and  _50
REMARK   23  A    between atoms: _50  and  _51
REMARK   24  A    between atoms: _54  and  _56
REMARK   25  A    between atoms: _56  and  _57
REMARK   26  A    between atoms: _56  and  _59
REMARK   27  A    between atoms: _59  and  _60
REMARK   28  A    between atoms: _60  and  _61
REMARK   29  A    between atoms: _64  and  _66
REMARK   30  A    between atoms: _66  and  _67
REMARK   31  A    between atoms: _66  and  _69
REMARK   32  A    between atoms: _69  and  _70
REMARK   33  A    between atoms: _70  and  _71
REMARK   34  A    between atoms: _71  and  _72
REMARK   35  A    between atoms: _72  and  _73
REMARK   36  A    between atoms: _77  and  _79
REMARK   37  A    between atoms: _79  and  _80
REMARK   38  A    between atoms: _79  and  _82
REMARK   39  A    between atoms: _82  and  _83
REMARK   40  A    between atoms: _88  and  _89
REMARK   41  A    between atoms: _91  and  _93
REMARK   42  A    between atoms: _93  and  _94
REMARK   43  A    between atoms: _93  and  _96
REMARK   44  A    between atoms: _96  and  _97
REMARK   45  A    between atoms: _102  and  _104
REMARK   46  A    between atoms: _104  and  _105
REMARK   47  A    between atoms: _104  and  _107
REMARK   48  A    between atoms: _111  and  _112
REMARK   49  A    between atoms: _117  and  _119
REMARK   50  A    between atoms: _119  and  _120
REMARK   51  A    between atoms: _119  and  _122
REMARK   52  A    between atoms: _122  and  _123
REMARK   53  A    between atoms: _129  and  _131
REMARK   54  A    between atoms: _131  and  _132
REMARK   55  A    between atoms: _134  and  _136
REMARK   56  A    between atoms: _136  and  _137
REMARK   57  A    between atoms: _136  and  _139
REMARK   58  A    between atoms: _139  and  _140
REMARK   59  A    between atoms: _140  and  _141
REMARK   60  A    between atoms: _144  and  _146
REMARK   61  A    between atoms: _146  and  _147
REMARK   62  A    between atoms: _150  and  _152
REMARK   63  A    between atoms: _152  and  _153
REMARK   64  A    between atoms: _152  and  _155
REMARK   65  A    between atoms: _155  and  _156
REMARK   66  A    between atoms: _161  and  _163
REMARK   67  A    between atoms: _163  and  _164
REMARK   68  A    between atoms: _167  and  _169
REMARK   69  A    between atoms: _169  and  _170
REMARK   70  A    between atoms: _169  and  _172
REMARK   71  A    between atoms: _172  and  _173
REMARK   72  A    between atoms: _173  and  _174
REMARK   73  A    between atoms: _174  and  _175
REMARK   74  A    between atoms: _175  and  _176
REMARK   75  A    between atoms: _180  and  _182
REMARK   76  A    between atoms: _182  and  _183
REMARK   77  A    between atoms: _182  and  _185
REMARK   78  A    between atoms: _185  and  _186
REMARK   79  A    between atoms: _186  and  _187
REMARK   80  A    between atoms: _187  and  _188
REMARK   81  A    between atoms: _188  and  _189
REMARK   82  A    between atoms: _193  and  _195
REMARK   83  A    between atoms: _195  and  _196
REMARK   84  A    between atoms: _195  and  _198
REMARK   85  A    between atoms: _198  and  _199
REMARK   86  A    between atoms: _199  and  _200
REMARK   87  A    between atoms: _200  and  _201
REMARK   88  A    between atoms: _210  and  _212
REMARK   89  A    between atoms: _212  and  _213
REMARK   90  A    between atoms: _212  and  _215
REMARK   91  A    between atoms: _215  and  _216
REMARK   92  A    between atoms: _216  and  _217
REMARK   93  A    between atoms: _220  and  _222
REMARK   94  A    between atoms: _222  and  _223
REMARK   95  A    between atoms: _222  and  _225
REMARK   96  A    between atoms: _228  and  _230
REMARK   97  A    between atoms: _230  and  _231
REMARK   98  A    between atoms: _234  and  _236
REMARK   99  A    between atoms: _236  and  _237
REMARK  100  A    between atoms: _236  and  _239
REMARK  101  A    between atoms: _239  and  _240
REMARK  102  A    between atoms: _250  and  _252
REMARK  103  A    between atoms: _252  and  _253
REMARK  104  A    between atoms: _252  and  _255
REMARK  105  A    between atoms: _258  and  _260
REMARK  106  A    between atoms: _260  and  _261
REMARK  107  A    between atoms: _260  and  _263
REMARK  108  A    between atoms: _263  and  _264
REMARK  109  A    between atoms: _267  and  _269
REMARK  110  A    between atoms: _269  and  _270
REMARK  111  A    between atoms: _269  and  _272
REMARK  112  A    between atoms: _272  and  _273
REMARK  113  A    between atoms: _279  and  _281
REMARK  114  A    between atoms: _281  and  _282
REMARK  115  A    between atoms: _281  and  _284
REMARK  116  A    between atoms: _284  and  _285
REMARK  117  A    between atoms: _285  and  _286
REMARK  118  A    between atoms: _291  and  _293
REMARK  119  A    between atoms: _293  and  _294
REMARK  120  A    between atoms: _293  and  _296
REMARK  121  A    between atoms: _299  and  _301
REMARK  122  A    between atoms: _301  and  _302
REMARK  123  A    between atoms: _301  and  _304
REMARK  124  A    between atoms: _304  and  _305
REMARK  125  A    between atoms: _308  and  _310
REMARK  126  A    between atoms: _310  and  _311
REMARK  127  A    between atoms: _310  and  _313
REMARK  128  A    between atoms: _313  and  _314
REMARK  129  A    between atoms: _317  and  _319
REMARK  130  A    between atoms: _319  and  _320
REMARK  131  A    between atoms: _319  and  _322
REMARK  132  A    between atoms: _322  and  _323
REMARK  133  A    between atoms: _326  and  _328
REMARK  134  A    between atoms: _328  and  _329
REMARK  135  A    between atoms: _328  and  _331
REMARK  136  A    between atoms: _331  and  _332
REMARK  137  A    between atoms: _335  and  _337
REMARK  138  A    between atoms: _337  and  _338
REMARK  139  A    between atoms: _337  and  _340
REMARK  140  A    between atoms: _340  and  _341
REMARK  141  A    between atoms: _341  and  _342
REMARK  142  A    between atoms: _342  and  _343
REMARK  143  A    between atoms: _352  and  _354
REMARK  144  A    between atoms: _354  and  _355
REMARK  145  A    between atoms: _354  and  _357
REMARK  146  A    between atoms: _357  and  _358
REMARK  147  A    between atoms: _361  and  _363
REMARK  148  A    between atoms: _363  and  _364
REMARK  149  A    between atoms: _363  and  _366
REMARK  150  A    between atoms: _366  and  _367
REMARK  151  A    between atoms: _371  and  _372
REMARK  152  A    between atoms: _377  and  _379
REMARK  153  A    between atoms: _379  and  _380
REMARK  154  A    between atoms: _379  and  _382
REMARK  155  A    between atoms: _382  and  _383
REMARK  156  A    between atoms: _388  and  _389
REMARK  157  A    between atoms: _391  and  _393
REMARK  158  A    between atoms: _393  and  _394
REMARK  159  A    between atoms: _393  and  _396
REMARK  160  A    between atoms: _396  and  _397
REMARK  161  A    between atoms: _407  and  _409
REMARK  162  A    between atoms: _409  and  _410
REMARK  163  A    between atoms: _409  and  _412
REMARK  164  A    between atoms: _412  and  _413
REMARK  165  A    between atoms: _419  and  _421
REMARK  166  A    between atoms: _421  and  _422
REMARK  167  A    between atoms: _421  and  _424
REMARK  168  A    between atoms: _424  and  _425
REMARK  169  A    between atoms: _428  and  _430
REMARK  170  A    between atoms: _430  and  _431
REMARK  171  A    between atoms: _430  and  _433
REMARK  172  A    between atoms: _433  and  _434
REMARK  173  A    between atoms: _444  and  _446
REMARK  174  A    between atoms: _446  and  _447
REMARK  175  A    between atoms: _446  and  _449
REMARK  176  A    between atoms: _449  and  _450
REMARK  177  A    between atoms: _450  and  _451
REMARK  178  A    between atoms: _453  and  _455
REMARK  179  A    between atoms: _455  and  _456
REMARK  180  A    between atoms: _455  and  _458
REMARK  181  A    between atoms: _458  and  _459
REMARK  182  A    between atoms: _464  and  _466
REMARK  183  A    between atoms: _466  and  _467
REMARK  184  A    between atoms: _470  and  _471
REMARK  185  A    between atoms: _476  and  _478
REMARK  186  A    between atoms: _478  and  _479
REMARK  187  A    between atoms: _478  and  _481
REMARK  188  A    between atoms: _481  and  _482
REMARK  189  A    between atoms: _492  and  _494
REMARK  190  A    between atoms: _494  and  _495
REMARK  191  A    between atoms: _499  and  _500
REMARK  192  A    between atoms: _505  and  _507
REMARK  193  A    between atoms: _507  and  _508
REMARK  194  A    between atoms: _507  and  _510
REMARK  195  A    between atoms: _510  and  _511
REMARK  196  A    between atoms: _511  and  _512
REMARK  197  A    between atoms: _517  and  _519
REMARK  198  A    between atoms: _519  and  _520
REMARK  199  A    between atoms: _522  and  _524
REMARK  200  A    between atoms: _524  and  _525
REMARK  201  A    between atoms: _527  and  _529
REMARK  202  A    between atoms: _529  and  _530
REMARK  203  A    between atoms: _529  and  _532
REMARK  204  A    between atoms: _532  and  _533
REMARK  205  A    between atoms: _543  and  _545
REMARK  206  A    between atoms: _545  and  _546
REMARK  207  A    between atoms: _545  and  _548
REMARK  208  A    between atoms: _548  and  _549
REMARK  209  A    between atoms: _552  and  _554
REMARK  210  A    between atoms: _554  and  _555
REMARK  211  A    between atoms: _554  and  _557
REMARK  212  A    between atoms: _557  and  _558
REMARK  213  A    between atoms: _561  and  _563
REMARK  214  A    between atoms: _563  and  _564
REMARK  215  A    between atoms: _563  and  _566
REMARK  216  A    between atoms: _566  and  _567
REMARK  217  A    between atoms: _567  and  _568
REMARK  218  A    between atoms: _568  and  _569
REMARK  219  A    between atoms: _578  and  _580
REMARK  220  A    between atoms: _580  and  _581
REMARK  221  A    between atoms: _580  and  _583
REMARK  222  A    between atoms: _583  and  _584
REMARK  223  A    between atoms: _594  and  _596
REMARK  224  A    between atoms: _596  and  _597
REMARK  225  A    between atoms: _600  and  _602
REMARK  226  A    between atoms: _602  and  _603
REMARK  227  A    between atoms: _602  and  _605
REMARK  228  A    between atoms: _605  and  _606
REMARK  229  A    between atoms: _606  and  _607
REMARK  230  A    between atoms: _610  and  _612
REMARK  231  A    between atoms: _612  and  _613
REMARK  232  A    between atoms: _615  and  _617
REMARK  233  A    between atoms: _617  and  _618
REMARK  234  A    between atoms: _617  and  _620
REMARK  235  A    between atoms: _620  and  _621
REMARK  236  A    between atoms: _626  and  _628
REMARK  237  A    between atoms: _628  and  _629
REMARK  238  A    between atoms: _632  and  _634
REMARK  239  A    between atoms: _634  and  _635
REMARK  240  A    between atoms: _634  and  _637
REMARK  241  A    between atoms: _637  and  _638
REMARK  242  A    between atoms: _641  and  _643
REMARK  243  A    between atoms: _643  and  _644
REMARK  244  A    between atoms: _643  and  _646
REMARK  245  A    between atoms: _646  and  _647
REMARK  246  A    between atoms: _653  and  _655
REMARK  247  A    between atoms: _655  and  _656
REMARK  248  A    between atoms: _655  and  _658
REMARK  249  A    between atoms: _658  and  _659
REMARK  250  A    between atoms: _659  and  _660
REMARK  251  A    between atoms: _663  and  _665
REMARK  252  A    between atoms: _665  and  _666
REMARK  253  A    between atoms: _665  and  _668
REMARK  254  A    between atoms: _668  and  _669
REMARK  255  A    between atoms: _669  and  _670
REMARK  256  A    between atoms: _670  and  _671
REMARK                            x       y       z     vdW  Elec       q    Type
REMARK                         _______ _______ _______ _____ _____    ______ ____
ROOT
ATOM      1  NE  ARG A   1     -14.524 -13.808  22.561  0.00  0.00    -0.265 N 
ATOM      2  HE  ARG A   1     -13.768 -14.517  22.645  0.00  0.00    +0.259 HD
ATOM      3  CZ  ARG A   1     -15.715 -14.224  22.134  0.00  0.00    +0.342 C 
ATOM      4  NH2 ARG A   1     -16.735 -13.376  22.036  0.00  0.00    -0.292 N 
ATOM      5 HH21 ARG A   1     -16.607 -12.377  22.294  0.00  0.00    +0.255 HD
ATOM      6 HH22 ARG A   1     -17.660 -13.712  21.701  0.00  0.00    +0.255 HD
ATOM      7  NH1 ARG A   1     -15.885 -15.495  21.792  0.00  0.00    -0.292 N 
ATOM      8 HH11 ARG A   1     -15.090 -16.162  21.858  0.00  0.00    +0.255 HD
ATOM      9 HH12 ARG A   1     -16.813 -15.824  21.458  0.00  0.00    +0.255 HD
ENDROOT
BRANCH   1  10
ATOM     10  CD  ARG A   1     -14.202 -12.428  22.920  0.00  0.00    +0.174 C 
BRANCH  10  11
ATOM     11  CG  ARG A   1     -14.767 -11.964  24.259  0.00  0.00    +0.045 C 
BRANCH  11  12
ATOM     12  CB  ARG A   1     -13.972 -12.518  25.402  0.00  0.00    +0.029 C 
BRANCH  12  13
ATOM     13  CA  ARG A   1     -14.547 -12.141  26.779  0.00  0.00    +0.133 C 
BRANCH  13  14
ATOM     14  N   ARG A   1     -13.654 -12.581  27.833  0.00  0.00    -0.239 NA
ATOM     15  H   ARG A   1     -12.748 -13.026  27.581  0.00  0.00    +0.142 HD
ENDBRANCH  13  14
BRANCH  13  16
ATOM     16  C   ARG A   1     -15.949 -12.724  26.949  0.00  0.00    +0.224 C 
ATOM     17  O   ARG A   1     -16.953 -11.987  26.902  0.00  0.00    -0.287 OA
ENDBRANCH  13  16
ENDBRANCH  12  13
ENDBRANCH  11  12
ENDBRANCH  10  11
ENDBRANCH   1  10
TORSDOF 6
REMARK  Name = ../refined-set-2016/3k00/3k00_pocket.pdb
REMARK  256 active torsions:
REMARK  status: ('A' for Active; 'I' for Inactive)
REMARK    1  A    between atoms: _1  and  _3
REMARK    2  A    between atoms: _3  and  _4
REMARK    3  A    between atoms: _3  and  _6
REMARK    4  A    between atoms: _6  and  _7
REMARK    5  A    between atoms: _10  and  _12
REMARK    6  A    between atoms: _12  and  _13
REMARK    7  A    between atoms: _12  and  _15
REMARK    8  A    between atoms: _15  and  _16
REMARK    9  A    between atoms: _19  and  _21
REMARK   10  A    between atoms: _21  and  _22
REMARK   11  A    between atoms: _21  and  _24
REMARK   12  A    between atoms: _24  and  _25
REMARK   13  A    between atoms: _27  and  _29
REMARK   14  A    between atoms: _29  and  _30
REMARK   15  A    between atoms: _29  and  _32
REMARK   16  A    between atoms: _32  and  _33
REMARK   17  A    between atoms: _38  and  _40
REMARK   18  A    between atoms: _40  and  _41
REMARK   19  A    between atoms: _40  and  _43
REMARK   20  A    between atoms: _43  and  _44
REMARK   21  A    between atoms: _44  and  _45
REMARK   22  A    between atoms: _48  and  _50
REMARK   23  A    between atoms: _50  and  _51
REMARK   24  A    between atoms: _54  and  _56
REMARK   25  A    between atoms: _56  and  _57
REMARK   26  A    between atoms: _56  and  _59
REMARK   27  A    between atoms: _59  and  _60
REMARK   28  A    between atoms: _60  and  _61
REMARK   29  A    between atoms: _64  and  _66
REMARK   30  A    between atoms: _66  and  _67
REMARK   31  A    between atoms: _66  and  _69
REMARK   32  A    between atoms: _69  and  _70
REMARK   33  A    between atoms: _70  and  _71
REMARK   34  A    between atoms: _71  and  _72
REMARK   35  A    between atoms: _72  and  _73
REMARK   36  A    between atoms: _77  and  _79
REMARK   37  A    between atoms: _79  and  _80
REMARK   38  A    between atoms: _79  and  _82
REMARK   39  A    between atoms: _82  and  _83
REMARK   40  A    between atoms: _88  and  _89
REMARK   41  A    between atoms: _91  and  _93
REMARK   42  A    between atoms: _93  and  _94
REMARK   43  A    between atoms: _93  and  _96
REMARK   44  A    between atoms: _96  and  _97
REMARK   45  A    between atoms: _102  and  _104
REMARK   46  A    between atoms: _104  and  _105
REMARK   47  A    between atoms: _104  and  _107
REMARK   48  A    between atoms: _111  and  _112
REMARK   49  A    between atoms: _117  and  _119
REMARK   50  A    between atoms: _119  and  _120
REMARK   51  A    between atoms: _119  and  _122
REMARK   52  A    between atoms: _122  and  _123
REMARK   53  A    between atoms: _129  and  _131
REMARK   54  A    between atoms: _131  and  _132
REMARK   55  A    between atoms: _134  and  _136
REMARK   56  A    between atoms: _136  and  _137
REMARK   57  A    between atoms: _136  and  _139
REMARK   58  A    between atoms: _139  and  _140
REMARK   59  A    between atoms: _140  and  _141
REMARK   60  A    between atoms: _144  and  _146
REMARK   61  A    between atoms: _146  and  _147
REMARK   62  A    between atoms: _150  and  _152
REMARK   63  A    between atoms: _152  and  _153
REMARK   64  A    between atoms: _152  and  _155
REMARK   65  A    between atoms: _155  and  _156
REMARK   66  A    between atoms: _161  and  _163
REMARK   67  A    between atoms: _163  and  _164
REMARK   68  A    between atoms: _167  and  _169
REMARK   69  A    between atoms: _169  and  _170
REMARK   70  A    between atoms: _169  and  _172
REMARK   71  A    between atoms: _172  and  _173
REMARK   72  A    between atoms: _173  and  _174
REMARK   73  A    between atoms: _174  and  _175
REMARK   74  A    between atoms: _175  and  _176
REMARK   75  A    between atoms: _180  and  _182
REMARK   76  A    between atoms: _182  and  _183
REMARK   77  A    between atoms: _182  and  _185
REMARK   78  A    between atoms: _185  and  _186
REMARK   79  A    between atoms: _186  and  _187
REMARK   80  A    between atoms: _187  and  _188
REMARK   81  A    between atoms: _188  and  _189
REMARK   82  A    between atoms: _193  and  _195
REMARK   83  A    between atoms: _195  and  _196
REMARK   84  A    between atoms: _195  and  _198
REMARK   85  A    between atoms: _198  and  _199
REMARK   86  A    between atoms: _199  and  _200
REMARK   87  A    between atoms: _200  and  _201
REMARK   88  A    between atoms: _210  and  _212
REMARK   89  A    between atoms: _212  and  _213
REMARK   90  A    between atoms: _212  and  _215
REMARK   91  A    between atoms: _215  and  _216
REMARK   92  A    between atoms: _216  and  _217
REMARK   93  A    between atoms: _220  and  _222
REMARK   94  A    between atoms: _222  and  _223
REMARK   95  A    between atoms: _222  and  _225
REMARK   96  A    between atoms: _228  and  _230
REMARK   97  A    between atoms: _230  and  _231
REMARK   98  A    between atoms: _234  and  _236
REMARK   99  A    between atoms: _236  and  _237
REMARK  100  A    between atoms: _236  and  _239
REMARK  101  A    between atoms: _239  and  _240
REMARK  102  A    between atoms: _250  and  _252
REMARK  103  A    between atoms: _252  and  _253
REMARK  104  A    between atoms: _252  and  _255
REMARK  105  A    between atoms: _258  and  _260
REMARK  106  A    between atoms: _260  and  _261
REMARK  107  A    between atoms: _260  and  _263
REMARK  108  A    between atoms: _263  and  _264
REMARK  109  A    between atoms: _267  and  _269
REMARK  110  A    between atoms: _269  and  _270
REMARK  111  A    between atoms: _269  and  _272
REMARK  112  A    between atoms: _272  and  _273
REMARK  113  A    between atoms: _279  and  _281
REMARK  114  A    between atoms: _281  and  _282
REMARK  115  A    between atoms: _281  and  _284
REMARK  116  A    between atoms: _284  and  _285
REMARK  117  A    between atoms: _285  and  _286
REMARK  118  A    between atoms: _291  and  _293
REMARK  119  A    between atoms: _293  and  _294
REMARK  120  A    between atoms: _293  and  _296
REMARK  121  A    between atoms: _299  and  _301
REMARK  122  A    between atoms: _301  and  _302
REMARK  123  A    between atoms: _301  and  _304
REMARK  124  A    between atoms: _304  and  _305
REMARK  125  A    between atoms: _308  and  _310
REMARK  126  A    between atoms: _310  and  _311
REMARK  127  A    between atoms: _310  and  _313
REMARK  128  A    between atoms: _313  and  _314
REMARK  129  A    between atoms: _317  and  _319
REMARK  130  A    between atoms: _319  and  _320
REMARK  131  A    between atoms: _319  and  _322
REMARK  132  A    between atoms: _322  and  _323
REMARK  133  A    between atoms: _326  and  _328
REMARK  134  A    between atoms: _328  and  _329
REMARK  135  A    between atoms: _328  and  _331
REMARK  136  A    between atoms: _331  and  _332
REMARK  137  A    between atoms: _335  and  _337
REMARK  138  A    between atoms: _337  and  _338
REMARK  139  A    between atoms: _337  and  _340
REMARK  140  A    between atoms: _340  and  _341
REMARK  141  A    between atoms: _341  and  _342
REMARK  142  A    between atoms: _342  and  _343
REMARK  143  A    between atoms: _352  and  _354
REMARK  144  A    between atoms: _354  and  _355
REMARK  145  A    between atoms: _354  and  _357
REMARK  146  A    between atoms: _357  and  _358
REMARK  147  A    between atoms: _361  and  _363
REMARK  148  A    between atoms: _363  and  _364
REMARK  149  A    between atoms: _363  and  _366
REMARK  150  A    between atoms: _366  and  _367
REMARK  151  A    between atoms: _371  and  _372
REMARK  152  A    between atoms: _377  and  _379
REMARK  153  A    between atoms: _379  and  _380
REMARK  154  A    between atoms: _379  and  _382
REMARK  155  A    between atoms: _382  and  _383
REMARK  156  A    between atoms: _388  and  _389
REMARK  157  A    between atoms: _391  and  _393
REMARK  158  A    between atoms: _393  and  _394
REMARK  159  A    between atoms: _393  and  _396
REMARK  160  A    between atoms: _396  and  _397
REMARK  161  A    between atoms: _407  and  _409
REMARK  162  A    between atoms: _409  and  _410
REMARK  163  A    between atoms: _409  and  _412
REMARK  164  A    between atoms: _412  and  _413
REMARK  165  A    between atoms: _419  and  _421
REMARK  166  A    between atoms: _421  and  _422
REMARK  167  A    between atoms: _421  and  _424
REMARK  168  A    between atoms: _424  and  _425
REMARK  169  A    between atoms: _428  and  _430
REMARK  170  A    between atoms: _430  and  _431
REMARK  171  A    between atoms: _430  and  _433
REMARK  172  A    between atoms: _433  and  _434
REMARK  173  A    between atoms: _444  and  _446
REMARK  174  A    between atoms: _446  and  _447
REMARK  175  A    between atoms: _446  and  _449
REMARK  176  A    between atoms: _449  and  _450
REMARK  177  A    between atoms: _450  and  _451
REMARK  178  A    between atoms: _453  and  _455
REMARK  179  A    between atoms: _455  and  _456
REMARK  180  A    between atoms: _455  and  _458
REMARK  181  A    between atoms: _458  and  _459
REMARK  182  A    between atoms: _464  and  _466
REMARK  183  A    between atoms: _466  and  _467
REMARK  184  A    between atoms: _470  and  _471
REMARK  185  A    between atoms: _476  and  _478
REMARK  186  A    between atoms: _478  and  _479
REMARK  187  A    between atoms: _478  and  _481
REMARK  188  A    between atoms: _481  and  _482
REMARK  189  A    between atoms: _492  and  _494
REMARK  190  A    between atoms: _494  and  _495
REMARK  191  A    between atoms: _499  and  _500
REMARK  192  A    between atoms: _505  and  _507
REMARK  193  A    between atoms: _507  and  _508
REMARK  194  A    between atoms: _507  and  _510
REMARK  195  A    between atoms: _510  and  _511
REMARK  196  A    between atoms: _511  and  _512
REMARK  197  A    between atoms: _517  and  _519
REMARK  198  A    between atoms: _519  and  _520
REMARK  199  A    between atoms: _522  and  _524
REMARK  200  A    between atoms: _524  and  _525
REMARK  201  A    between atoms: _527  and  _529
REMARK  202  A    between atoms: _529  and  _530
REMARK  203  A    between atoms: _529  and  _532
REMARK  204  A    between atoms: _532  and  _533
REMARK  205  A    between atoms: _543  and  _545
REMARK  206  A    between atoms: _545  and  _546
REMARK  207  A    between atoms: _545  and  _548
REMARK  208  A    between atoms: _548  and  _549
REMARK  209  A    between atoms: _552  and  _554
REMARK  210  A    between atoms: _554  and  _555
REMARK  211  A    between atoms: _554  and  _557
REMARK  212  A    between atoms: _557  and  _558
REMARK  213  A    between atoms: _561  and  _563
REMARK  214  A    between atoms: _563  and  _564
REMARK  215  A    between atoms: _563  and  _566
REMARK  216  A    between atoms: _566  and  _567
REMARK  217  A    between atoms: _567  and  _568
REMARK  218  A    between atoms: _568  and  _569
REMARK  219  A    between atoms: _578  and  _580
REMARK  220  A    between atoms: _580  and  _581
REMARK  221  A    between atoms: _580  and  _583
REMARK  222  A    between atoms: _583  and  _584
REMARK  223  A    between atoms: _594  and  _596
REMARK  224  A    between atoms: _596  and  _597
REMARK  225  A    between atoms: _600  and  _602
REMARK  226  A    between atoms: _602  and  _603
REMARK  227  A    between atoms: _602  and  _605
REMARK  228  A    between atoms: _605  and  _606
REMARK  229  A    between atoms: _606  and  _607
REMARK  230  A    between atoms: _610  and  _612
REMARK  231  A    between atoms: _612  and  _613
REMARK  232  A    between atoms: _615  and  _617
REMARK  233  A    between atoms: _617  and  _618
REMARK  234  A    between atoms: _617  and  _620
REMARK  235  A    between atoms: _620  and  _621
REMARK  236  A    between atoms: _626  and  _628
REMARK  237  A    between atoms: _628  and  _629
REMARK  238  A    between atoms: _632  and  _634
REMARK  239  A    between atoms: _634  and  _635
REMARK  240  A    between atoms: _634  and  _637
REMARK  241  A    between atoms: _637  and  _638
REMARK  242  A    between atoms: _641  and  _643
REMARK  243  A    between atoms: _643  and  _644
REMARK  244  A    between atoms: _643  and  _646
REMARK  245  A    between atoms: _646  and  _647
REMARK  246  A    between atoms: _653  and  _655
REMARK  247  A    between atoms: _655  and  _656
REMARK  248  A    between atoms: _655  and  _658
REMARK  249  A    between atoms: _658  and  _659
REMARK  250  A    between atoms: _659  and  _660
REMARK  251  A    between atoms: _663  and  _665
REMARK  252  A    between atoms: _665  and  _666
REMARK  253  A    between atoms: _665  and  _668
REMARK  254  A    between atoms: _668  and  _669
REMARK  255  A    between atoms: _669  and  _670
REMARK  256  A    between atoms: _670  and  _671
REMARK                            x       y       z     vdW  Elec       q    Type
REMARK                         _______ _______ _______ _____ _____    ______ ____
ROOT
ATOM      1  O   HOH     1     -10.509  -7.093  19.119  0.00  0.00    +0.000 OA
ENDROOT
TORSDOF 0
REMARK  Name = ../refined-set-2016/3k00/3k00_pocket.pdb
REMARK  256 active torsions:
REMARK  status: ('A' for Active; 'I' for Inactive)
REMARK    1  A    between atoms: _1  and  _3
REMARK    2  A    between atoms: _3  and  _4
REMARK    3  A    between atoms: _3  and  _6
REMARK    4  A    between atoms: _6  and  _7
REMARK    5  A    between atoms: _10  and  _12
REMARK    6  A    between atoms: _12  and  _13
REMARK    7  A    between atoms: _12  and  _15
REMARK    8  A    between atoms: _15  and  _16
REMARK    9  A    between atoms: _19  and  _21
REMARK   10  A    between atoms: _21  and  _22
REMARK   11  A    between atoms: _21  and  _24
REMARK   12  A    between atoms: _24  and  _25
REMARK   13  A    between atoms: _27  and  _29
REMARK   14  A    between atoms: _29  and  _30
REMARK   15  A    between atoms: _29  and  _32
REMARK   16  A    between atoms: _32  and  _33
REMARK   17  A    between atoms: _38  and  _40
REMARK   18  A    between atoms: _40  and  _41
REMARK   19  A    between atoms: _40  and  _43
REMARK   20  A    between atoms: _43  and  _44
REMARK   21  A    between atoms: _44  and  _45
REMARK   22  A    between atoms: _48  and  _50
REMARK   23  A    between atoms: _50  and  _51
REMARK   24  A    between atoms: _54  and  _56
REMARK   25  A    between atoms: _56  and  _57
REMARK   26  A    between atoms: _56  and  _59
REMARK   27  A    between atoms: _59  and  _60
REMARK   28  A    between atoms: _60  and  _61
REMARK   29  A    between atoms: _64  and  _66
REMARK   30  A    between atoms: _66  and  _67
REMARK   31  A    between atoms: _66  and  _69
REMARK   32  A    between atoms: _69  and  _70
REMARK   33  A    between atoms: _70  and  _71
REMARK   34  A    between atoms: _71  and  _72
REMARK   35  A    between atoms: _72  and  _73
REMARK   36  A    between atoms: _77  and  _79
REMARK   37  A    between atoms: _79  and  _80
REMARK   38  A    between atoms: _79  and  _82
REMARK   39  A    between atoms: _82  and  _83
REMARK   40  A    between atoms: _88  and  _89
REMARK   41  A    between atoms: _91  and  _93
REMARK   42  A    between atoms: _93  and  _94
REMARK   43  A    between atoms: _93  and  _96
REMARK   44  A    between atoms: _96  and  _97
REMARK   45  A    between atoms: _102  and  _104
REMARK   46  A    between atoms: _104  and  _105
REMARK   47  A    between atoms: _104  and  _107
REMARK   48  A    between atoms: _111  and  _112
REMARK   49  A    between atoms: _117  and  _119
REMARK   50  A    between atoms: _119  and  _120
REMARK   51  A    between atoms: _119  and  _122
REMARK   52  A    between atoms: _122  and  _123
REMARK   53  A    between atoms: _129  and  _131
REMARK   54  A    between atoms: _131  and  _132
REMARK   55  A    between atoms: _134  and  _136
REMARK   56  A    between atoms: _136  and  _137
REMARK   57  A    between atoms: _136  and  _139
REMARK   58  A    between atoms: _139  and  _140
REMARK   59  A    between atoms: _140  and  _141
REMARK   60  A    between atoms: _144  and  _146
REMARK   61  A    between atoms: _146  and  _147
REMARK   62  A    between atoms: _150  and  _152
REMARK   63  A    between atoms: _152  and  _153
REMARK   64  A    between atoms: _152  and  _155
REMARK   65  A    between atoms: _155  and  _156
REMARK   66  A    between atoms: _161  and  _163
REMARK   67  A    between atoms: _163  and  _164
REMARK   68  A    between atoms: _167  and  _169
REMARK   69  A    between atoms: _169  and  _170
REMARK   70  A    between atoms: _169  and  _172
REMARK   71  A    between atoms: _172  and  _173
REMARK   72  A    between atoms: _173  and  _174
REMARK   73  A    between atoms: _174  and  _175
REMARK   74  A    between atoms: _175  and  _176
REMARK   75  A    between atoms: _180  and  _182
REMARK   76  A    between atoms: _182  and  _183
REMARK   77  A    between atoms: _182  and  _185
REMARK   78  A    between atoms: _185  and  _186
REMARK   79  A    between atoms: _186  and  _187
REMARK   80  A    between atoms: _187  and  _188
REMARK   81  A    between atoms: _188  and  _189
REMARK   82  A    between atoms: _193  and  _195
REMARK   83  A    between atoms: _195  and  _196
REMARK   84  A    between atoms: _195  and  _198
REMARK   85  A    between atoms: _198  and  _199
REMARK   86  A    between atoms: _199  and  _200
REMARK   87  A    between atoms: _200  and  _201
REMARK   88  A    between atoms: _210  and  _212
REMARK   89  A    between atoms: _212  and  _213
REMARK   90  A    between atoms: _212  and  _215
REMARK   91  A    between atoms: _215  and  _216
REMARK   92  A    between atoms: _216  and  _217
REMARK   93  A    between atoms: _220  and  _222
REMARK   94  A    between atoms: _222  and  _223
REMARK   95  A    between atoms: _222  and  _225
REMARK   96  A    between atoms: _228  and  _230
REMARK   97  A    between atoms: _230  and  _231
REMARK   98  A    between atoms: _234  and  _236
REMARK   99  A    between atoms: _236  and  _237
REMARK  100  A    between atoms: _236  and  _239
REMARK  101  A    between atoms: _239  and  _240
REMARK  102  A    between atoms: _250  and  _252
REMARK  103  A    between atoms: _252  and  _253
REMARK  104  A    between atoms: _252  and  _255
REMARK  105  A    between atoms: _258  and  _260
REMARK  106  A    between atoms: _260  and  _261
REMARK  107  A    between atoms: _260  and  _263
REMARK  108  A    between atoms: _263  and  _264
REMARK  109  A    between atoms: _267  and  _269
REMARK  110  A    between atoms: _269  and  _270
REMARK  111  A    between atoms: _269  and  _272
REMARK  112  A    between atoms: _272  and  _273
REMARK  113  A    between atoms: _279  and  _281
REMARK  114  A    between atoms: _281  and  _282
REMARK  115  A    between atoms: _281  and  _284
REMARK  116  A    between atoms: _284  and  _285
REMARK  117  A    between atoms: _285  and  _286
REMARK  118  A    between atoms: _291  and  _293
REMARK  119  A    between atoms: _293  and  _294
REMARK  120  A    between atoms: _293  and  _296
REMARK  121  A    between atoms: _299  and  _301
REMARK  122  A    between atoms: _301  and  _302
REMARK  123  A    between atoms: _301  and  _304
REMARK  124  A    between atoms: _304  and  _305
REMARK  125  A    between atoms: _308  and  _310
REMARK  126  A    between atoms: _310  and  _311
REMARK  127  A    between atoms: _310  and  _313
REMARK  128  A    between atoms: _313  and  _314
REMARK  129  A    between atoms: _317  and  _319
REMARK  130  A    between atoms: _319  and  _320
REMARK  131  A    between atoms: _319  and  _322
REMARK  132  A    between atoms: _322  and  _323
REMARK  133  A    between atoms: _326  and  _328
REMARK  134  A    between atoms: _328  and  _329
REMARK  135  A    between atoms: _328  and  _331
REMARK  136  A    between atoms: _331  and  _332
REMARK  137  A    between atoms: _335  and  _337
REMARK  138  A    between atoms: _337  and  _338
REMARK  139  A    between atoms: _337  and  _340
REMARK  140  A    between atoms: _340  and  _341
REMARK  141  A    between atoms: _341  and  _342
REMARK  142  A    between atoms: _342  and  _343
REMARK  143  A    between atoms: _352  and  _354
REMARK  144  A    between atoms: _354  and  _355
REMARK  145  A    between atoms: _354  and  _357
REMARK  146  A    between atoms: _357  and  _358
REMARK  147  A    between atoms: _361  and  _363
REMARK  148  A    between atoms: _363  and  _364
REMARK  149  A    between atoms: _363  and  _366
REMARK  150  A    between atoms: _366  and  _367
REMARK  151  A    between atoms: _371  and  _372
REMARK  152  A    between atoms: _377  and  _379
REMARK  153  A    between atoms: _379  and  _380
REMARK  154  A    between atoms: _379  and  _382
REMARK  155  A    between atoms: _382  and  _383
REMARK  156  A    between atoms: _388  and  _389
REMARK  157  A    between atoms: _391  and  _393
REMARK  158  A    between atoms: _393  and  _394
REMARK  159  A    between atoms: _393  and  _396
REMARK  160  A    between atoms: _396  and  _397
REMARK  161  A    between atoms: _407  and  _409
REMARK  162  A    between atoms: _409  and  _410
REMARK  163  A    between atoms: _409  and  _412
REMARK  164  A    between atoms: _412  and  _413
REMARK  165  A    between atoms: _419  and  _421
REMARK  166  A    between atoms: _421  and  _422
REMARK  167  A    between atoms: _421  and  _424
REMARK  168  A    between atoms: _424  and  _425
REMARK  169  A    between atoms: _428  and  _430
REMARK  170  A    between atoms: _430  and  _431
REMARK  171  A    between atoms: _430  and  _433
REMARK  172  A    between atoms: _433  and  _434
REMARK  173  A    between atoms: _444  and  _446
REMARK  174  A    between atoms: _446  and  _447
REMARK  175  A    between atoms: _446  and  _449
REMARK  176  A    between atoms: _449  and  _450
REMARK  177  A    between atoms: _450  and  _451
REMARK  178  A    between atoms: _453  and  _455
REMARK  179  A    between atoms: _455  and  _456
REMARK  180  A    between atoms: _455  and  _458
REMARK  181  A    between atoms: _458  and  _459
REMARK  182  A    between atoms: _464  and  _466
REMARK  183  A    between atoms: _466  and  _467
REMARK  184  A    between atoms: _470  and  _471
REMARK  185  A    between atoms: _476  and  _478
REMARK  186  A    between atoms: _478  and  _479
REMARK  187  A    between atoms: _478  and  _481
REMARK  188  A    between atoms: _481  and  _482
REMARK  189  A    between atoms: _492  and  _494
REMARK  190  A    between atoms: _494  and  _495
REMARK  191  A    between atoms: _499  and  _500
REMARK  192  A    between atoms: _505  and  _507
REMARK  193  A    between atoms: _507  and  _508
REMARK  194  A    between atoms: _507  and  _510
REMARK  195  A    between atoms: _510  and  _511
REMARK  196  A    between atoms: _511  and  _512
REMARK  197  A    between atoms: _517  and  _519
REMARK  198  A    between atoms: _519  and  _520
REMARK  199  A    between atoms: _522  and  _524
REMARK  200  A    between atoms: _524  and  _525
REMARK  201  A    between atoms: _527  and  _529
REMARK  202  A    between atoms: _529  and  _530
REMARK  203  A    between atoms: _529  and  _532
REMARK  204  A    between atoms: _532  and  _533
REMARK  205  A    between atoms: _543  and  _545
REMARK  206  A    between atoms: _545  and  _546
REMARK  207  A    between atoms: _545  and  _548
REMARK  208  A    between atoms: _548  and  _549
REMARK  209  A    between atoms: _552  and  _554
REMARK  210  A    between atoms: _554  and  _555
REMARK  211  A    between atoms: _554  and  _557
REMARK  212  A    between atoms: _557  and  _558
REMARK  213  A    between atoms: _561  and  _563
REMARK  214  A    between atoms: _563  and  _564
REMARK  215  A    between atoms: _563  and  _566
REMARK  216  A    between atoms: _566  and  _567
REMARK  217  A    between atoms: _567  and  _568
REMARK  218  A    between atoms: _568  and  _569
REMARK  219  A    between atoms: _578  and  _580
REMARK  220  A    between atoms: _580  and  _581
REMARK  221  A    between atoms: _580  and  _583
REMARK  222  A    between atoms: _583  and  _584
REMARK  223  A    between atoms: _594  and  _596
REMARK  224  A    between atoms: _596  and  _597
REMARK  225  A    between atoms: _600  and  _602
REMARK  226  A    between atoms: _602  and  _603
REMARK  227  A    between atoms: _602  and  _605
REMARK  228  A    between atoms: _605  and  _606
REMARK  229  A    between atoms: _606  and  _607
REMARK  230  A    between atoms: _610  and  _612
REMARK  231  A    between atoms: _612  and  _613
REMARK  232  A    between atoms: _615  and  _617
REMARK  233  A    between atoms: _617  and  _618
REMARK  234  A    between atoms: _617  and  _620
REMARK  235  A    between atoms: _620  and  _621
REMARK  236  A    between atoms: _626  and  _628
REMARK  237  A    between atoms: _628  and  _629
REMARK  238  A    between atoms: _632  and  _634
REMARK  239  A    between atoms: _634  and  _635
REMARK  240  A    between atoms: _634  and  _637
REMARK  241  A    between atoms: _637  and  _638
REMARK  242  A    between atoms: _641  and  _643
REMARK  243  A    between atoms: _643  and  _644
REMARK  244  A    between atoms: _643  and  _646
REMARK  245  A    between atoms: _646  and  _647
REMARK  246  A    between atoms: _653  and  _655
REMARK  247  A    between atoms: _655  and  _656
REMARK  248  A    between atoms: _655  and  _658
REMARK  249  A    between atoms: _658  and  _659
REMARK  250  A    between atoms: _659  and  _660
REMARK  251  A    between atoms: _663  and  _665
REMARK  252  A    between atoms: _665  and  _666
REMARK  253  A    between atoms: _665  and  _668
REMARK  254  A    between atoms: _668  and  _669
REMARK  255  A    between atoms: _669  and  _670
REMARK  256  A    between atoms: _670  and  _671
REMARK                            x       y       z     vdW  Elec       q    Type
REMARK                         _______ _______ _______ _____ _____    ______ ____
ROOT
ATOM      1  O   HOH     1      -9.872 -18.009  20.972  0.00  0.00    +0.000 OA
ENDROOT
TORSDOF 0
REMARK  Name = ../refined-set-2016/3k00/3k00_pocket.pdb
REMARK  256 active torsions:
REMARK  status: ('A' for Active; 'I' for Inactive)
REMARK    1  A    between atoms: _1  and  _3
REMARK    2  A    between atoms: _3  and  _4
REMARK    3  A    between atoms: _3  and  _6
REMARK    4  A    between atoms: _6  and  _7
REMARK    5  A    between atoms: _10  and  _12
REMARK    6  A    between atoms: _12  and  _13
REMARK    7  A    between atoms: _12  and  _15
REMARK    8  A    between atoms: _15  and  _16
REMARK    9  A    between atoms: _19  and  _21
REMARK   10  A    between atoms: _21  and  _22
REMARK   11  A    between atoms: _21  and  _24
REMARK   12  A    between atoms: _24  and  _25
REMARK   13  A    between atoms: _27  and  _29
REMARK   14  A    between atoms: _29  and  _30
REMARK   15  A    between atoms: _29  and  _32
REMARK   16  A    between atoms: _32  and  _33
REMARK   17  A    between atoms: _38  and  _40
REMARK   18  A    between atoms: _40  and  _41
REMARK   19  A    between atoms: _40  and  _43
REMARK   20  A    between atoms: _43  and  _44
REMARK   21  A    between atoms: _44  and  _45
REMARK   22  A    between atoms: _48  and  _50
REMARK   23  A    between atoms: _50  and  _51
REMARK   24  A    between atoms: _54  and  _56
REMARK   25  A    between atoms: _56  and  _57
REMARK   26  A    between atoms: _56  and  _59
REMARK   27  A    between atoms: _59  and  _60
REMARK   28  A    between atoms: _60  and  _61
REMARK   29  A    between atoms: _64  and  _66
REMARK   30  A    between atoms: _66  and  _67
REMARK   31  A    between atoms: _66  and  _69
REMARK   32  A    between atoms: _69  and  _70
REMARK   33  A    between atoms: _70  and  _71
REMARK   34  A    between atoms: _71  and  _72
REMARK   35  A    between atoms: _72  and  _73
REMARK   36  A    between atoms: _77  and  _79
REMARK   37  A    between atoms: _79  and  _80
REMARK   38  A    between atoms: _79  and  _82
REMARK   39  A    between atoms: _82  and  _83
REMARK   40  A    between atoms: _88  and  _89
REMARK   41  A    between atoms: _91  and  _93
REMARK   42  A    between atoms: _93  and  _94
REMARK   43  A    between atoms: _93  and  _96
REMARK   44  A    between atoms: _96  and  _97
REMARK   45  A    between atoms: _102  and  _104
REMARK   46  A    between atoms: _104  and  _105
REMARK   47  A    between atoms: _104  and  _107
REMARK   48  A    between atoms: _111  and  _112
REMARK   49  A    between atoms: _117  and  _119
REMARK   50  A    between atoms: _119  and  _120
REMARK   51  A    between atoms: _119  and  _122
REMARK   52  A    between atoms: _122  and  _123
REMARK   53  A    between atoms: _129  and  _131
REMARK   54  A    between atoms: _131  and  _132
REMARK   55  A    between atoms: _134  and  _136
REMARK   56  A    between atoms: _136  and  _137
REMARK   57  A    between atoms: _136  and  _139
REMARK   58  A    between atoms: _139  and  _140
REMARK   59  A    between atoms: _140  and  _141
REMARK   60  A    between atoms: _144  and  _146
REMARK   61  A    between atoms: _146  and  _147
REMARK   62  A    between atoms: _150  and  _152
REMARK   63  A    between atoms: _152  and  _153
REMARK   64  A    between atoms: _152  and  _155
REMARK   65  A    between atoms: _155  and  _156
REMARK   66  A    between atoms: _161  and  _163
REMARK   67  A    between atoms: _163  and  _164
REMARK   68  A    between atoms: _167  and  _169
REMARK   69  A    between atoms: _169  and  _170
REMARK   70  A    between atoms: _169  and  _172
REMARK   71  A    between atoms: _172  and  _173
REMARK   72  A    between atoms: _173  and  _174
REMARK   73  A    between atoms: _174  and  _175
REMARK   74  A    between atoms: _175  and  _176
REMARK   75  A    between atoms: _180  and  _182
REMARK   76  A    between atoms: _182  and  _183
REMARK   77  A    between atoms: _182  and  _185
REMARK   78  A    between atoms: _185  and  _186
REMARK   79  A    between atoms: _186  and  _187
REMARK   80  A    between atoms: _187  and  _188
REMARK   81  A    between atoms: _188  and  _189
REMARK   82  A    between atoms: _193  and  _195
REMARK   83  A    between atoms: _195  and  _196
REMARK   84  A    between atoms: _195  and  _198
REMARK   85  A    between atoms: _198  and  _199
REMARK   86  A    between atoms: _199  and  _200
REMARK   87  A    between atoms: _200  and  _201
REMARK   88  A    between atoms: _210  and  _212
REMARK   89  A    between atoms: _212  and  _213
REMARK   90  A    between atoms: _212  and  _215
REMARK   91  A    between atoms: _215  and  _216
REMARK   92  A    between atoms: _216  and  _217
REMARK   93  A    between atoms: _220  and  _222
REMARK   94  A    between atoms: _222  and  _223
REMARK   95  A    between atoms: _222  and  _225
REMARK   96  A    between atoms: _228  and  _230
REMARK   97  A    between atoms: _230  and  _231
REMARK   98  A    between atoms: _234  and  _236
REMARK   99  A    between atoms: _236  and  _237
REMARK  100  A    between atoms: _236  and  _239
REMARK  101  A    between atoms: _239  and  _240
REMARK  102  A    between atoms: _250  and  _252
REMARK  103  A    between atoms: _252  and  _253
REMARK  104  A    between atoms: _252  and  _255
REMARK  105  A    between atoms: _258  and  _260
REMARK  106  A    between atoms: _260  and  _261
REMARK  107  A    between atoms: _260  and  _263
REMARK  108  A    between atoms: _263  and  _264
REMARK  109  A    between atoms: _267  and  _269
REMARK  110  A    between atoms: _269  and  _270
REMARK  111  A    between atoms: _269  and  _272
REMARK  112  A    between atoms: _272  and  _273
REMARK  113  A    between atoms: _279  and  _281
REMARK  114  A    between atoms: _281  and  _282
REMARK  115  A    between atoms: _281  and  _284
REMARK  116  A    between atoms: _284  and  _285
REMARK  117  A    between atoms: _285  and  _286
REMARK  118  A    between atoms: _291  and  _293
REMARK  119  A    between atoms: _293  and  _294
REMARK  120  A    between atoms: _293  and  _296
REMARK  121  A    between atoms: _299  and  _301
REMARK  122  A    between atoms: _301  and  _302
REMARK  123  A    between atoms: _301  and  _304
REMARK  124  A    between atoms: _304  and  _305
REMARK  125  A    between atoms: _308  and  _310
REMARK  126  A    between atoms: _310  and  _311
REMARK  127  A    between atoms: _310  and  _313
REMARK  128  A    between atoms: _313  and  _314
REMARK  129  A    between atoms: _317  and  _319
REMARK  130  A    between atoms: _319  and  _320
REMARK  131  A    between atoms: _319  and  _322
REMARK  132  A    between atoms: _322  and  _323
REMARK  133  A    between atoms: _326  and  _328
REMARK  134  A    between atoms: _328  and  _329
REMARK  135  A    between atoms: _328  and  _331
REMARK  136  A    between atoms: _331  and  _332
REMARK  137  A    between atoms: _335  and  _337
REMARK  138  A    between atoms: _337  and  _338
REMARK  139  A    between atoms: _337  and  _340
REMARK  140  A    between atoms: _340  and  _341
REMARK  141  A    between atoms: _341  and  _342
REMARK  142  A    between atoms: _342  and  _343
REMARK  143  A    between atoms: _352  and  _354
REMARK  144  A    between atoms: _354  and  _355
REMARK  145  A    between atoms: _354  and  _357
REMARK  146  A    between atoms: _357  and  _358
REMARK  147  A    between atoms: _361  and  _363
REMARK  148  A    between atoms: _363  and  _364
REMARK  149  A    between atoms: _363  and  _366
REMARK  150  A    between atoms: _366  and  _367
REMARK  151  A    between atoms: _371  and  _372
REMARK  152  A    between atoms: _377  and  _379
REMARK  153  A    between atoms: _379  and  _380
REMARK  154  A    between atoms: _379  and  _382
REMARK  155  A    between atoms: _382  and  _383
REMARK  156  A    between atoms: _388  and  _389
REMARK  157  A    between atoms: _391  and  _393
REMARK  158  A    between atoms: _393  and  _394
REMARK  159  A    between atoms: _393  and  _396
REMARK  160  A    between atoms: _396  and  _397
REMARK  161  A    between atoms: _407  and  _409
REMARK  162  A    between atoms: _409  and  _410
REMARK  163  A    between atoms: _409  and  _412
REMARK  164  A    between atoms: _412  and  _413
REMARK  165  A    between atoms: _419  and  _421
REMARK  166  A    between atoms: _421  and  _422
REMARK  167  A    between atoms: _421  and  _424
REMARK  168  A    between atoms: _424  and  _425
REMARK  169  A    between atoms: _428  and  _430
REMARK  170  A    between atoms: _430  and  _431
REMARK  171  A    between atoms: _430  and  _433
REMARK  172  A    between atoms: _433  and  _434
REMARK  173  A    between atoms: _444  and  _446
REMARK  174  A    between atoms: _446  and  _447
REMARK  175  A    between atoms: _446  and  _449
REMARK  176  A    between atoms: _449  and  _450
REMARK  177  A    between atoms: _450  and  _451
REMARK  178  A    between atoms: _453  and  _455
REMARK  179  A    between atoms: _455  and  _456
REMARK  180  A    between atoms: _455  and  _458
REMARK  181  A    between atoms: _458  and  _459
REMARK  182  A    between atoms: _464  and  _466
REMARK  183  A    between atoms: _466  and  _467
REMARK  184  A    between atoms: _470  and  _471
REMARK  185  A    between atoms: _476  and  _478
REMARK  186  A    between atoms: _478  and  _479
REMARK  187  A    between atoms: _478  and  _481
REMARK  188  A    between atoms: _481  and  _482
REMARK  189  A    between atoms: _492  and  _494
REMARK  190  A    between atoms: _494  and  _495
REMARK  191  A    between atoms: _499  and  _500
REMARK  192  A    between atoms: _505  and  _507
REMARK  193  A    between atoms: _507  and  _508
REMARK  194  A    between atoms: _507  and  _510
REMARK  195  A    between atoms: _510  and  _511
REMARK  196  A    between atoms: _511  and  _512
REMARK  197  A    between atoms: _517  and  _519
REMARK  198  A    between atoms: _519  and  _520
REMARK  199  A    between atoms: _522  and  _524
REMARK  200  A    between atoms: _524  and  _525
REMARK  201  A    between atoms: _527  and  _529
REMARK  202  A    between atoms: _529  and  _530
REMARK  203  A    between atoms: _529  and  _532
REMARK  204  A    between atoms: _532  and  _533
REMARK  205  A    between atoms: _543  and  _545
REMARK  206  A    between atoms: _545  and  _546
REMARK  207  A    between atoms: _545  and  _548
REMARK  208  A    between atoms: _548  and  _549
REMARK  209  A    between atoms: _552  and  _554
REMARK  210  A    between atoms: _554  and  _555
REMARK  211  A    between atoms: _554  and  _557
REMARK  212  A    between atoms: _557  and  _558
REMARK  213  A    between atoms: _561  and  _563
REMARK  214  A    between atoms: _563  and  _564
REMARK  215  A    between atoms: _563  and  _566
REMARK  216  A    between atoms: _566  and  _567
REMARK  217  A    between atoms: _567  and  _568
REMARK  218  A    between atoms: _568  and  _569
REMARK  219  A    between atoms: _578  and  _580
REMARK  220  A    between atoms: _580  and  _581
REMARK  221  A    between atoms: _580  and  _583
REMARK  222  A    between atoms: _583  and  _584
REMARK  223  A    between atoms: _594  and  _596
REMARK  224  A    between atoms: _596  and  _597
REMARK  225  A    between atoms: _600  and  _602
REMARK  226  A    between atoms: _602  and  _603
REMARK  227  A    between atoms: _602  and  _605
REMARK  228  A    between atoms: _605  and  _606
REMARK  229  A    between atoms: _606  and  _607
REMARK  230  A    between atoms: _610  and  _612
REMARK  231  A    between atoms: _612  and  _613
REMARK  232  A    between atoms: _615  and  _617
REMARK  233  A    between atoms: _617  and  _618
REMARK  234  A    between atoms: _617  and  _620
REMARK  235  A    between atoms: _620  and  _621
REMARK  236  A    between atoms: _626  and  _628
REMARK  237  A    between atoms: _628  and  _629
REMARK  238  A    between atoms: _632  and  _634
REMARK  239  A    between atoms: _634  and  _635
REMARK  240  A    between atoms: _634  and  _637
REMARK  241  A    between atoms: _637  and  _638
REMARK  242  A    between atoms: _641  and  _643
REMARK  243  A    between atoms: _643  and  _644
REMARK  244  A    between atoms: _643  and  _646
REMARK  245  A    between atoms: _646  and  _647
REMARK  246  A    between atoms: _653  and  _655
REMARK  247  A    between atoms: _655  and  _656
REMARK  248  A    between atoms: _655  and  _658
REMARK  249  A    between atoms: _658  and  _659
REMARK  250  A    between atoms: _659  and  _660
REMARK  251  A    between atoms: _663  and  _665
REMARK  252  A    between atoms: _665  and  _666
REMARK  253  A    between atoms: _665  and  _668
REMARK  254  A    between atoms: _668  and  _669
REMARK  255  A    between atoms: _669  and  _670
REMARK  256  A    between atoms: _670  and  _671
REMARK                            x       y       z     vdW  Elec       q    Type
REMARK                         _______ _______ _______ _____ _____    ______ ____
ROOT
ATOM      1  O   HOH     1     -11.004 -10.305  13.105  0.00  0.00    +0.000 OA
ENDROOT
TORSDOF 0
REMARK  Name = ../refined-set-2016/3k00/3k00_pocket.pdb
REMARK  256 active torsions:
REMARK  status: ('A' for Active; 'I' for Inactive)
REMARK    1  A    between atoms: _1  and  _3
REMARK    2  A    between atoms: _3  and  _4
REMARK    3  A    between atoms: _3  and  _6
REMARK    4  A    between atoms: _6  and  _7
REMARK    5  A    between atoms: _10  and  _12
REMARK    6  A    between atoms: _12  and  _13
REMARK    7  A    between atoms: _12  and  _15
REMARK    8  A    between atoms: _15  and  _16
REMARK    9  A    between atoms: _19  and  _21
REMARK   10  A    between atoms: _21  and  _22
REMARK   11  A    between atoms: _21  and  _24
REMARK   12  A    between atoms: _24  and  _25
REMARK   13  A    between atoms: _27  and  _29
REMARK   14  A    between atoms: _29  and  _30
REMARK   15  A    between atoms: _29  and  _32
REMARK   16  A    between atoms: _32  and  _33
REMARK   17  A    between atoms: _38  and  _40
REMARK   18  A    between atoms: _40  and  _41
REMARK   19  A    between atoms: _40  and  _43
REMARK   20  A    between atoms: _43  and  _44
REMARK   21  A    between atoms: _44  and  _45
REMARK   22  A    between atoms: _48  and  _50
REMARK   23  A    between atoms: _50  and  _51
REMARK   24  A    between atoms: _54  and  _56
REMARK   25  A    between atoms: _56  and  _57
REMARK   26  A    between atoms: _56  and  _59
REMARK   27  A    between atoms: _59  and  _60
REMARK   28  A    between atoms: _60  and  _61
REMARK   29  A    between atoms: _64  and  _66
REMARK   30  A    between atoms: _66  and  _67
REMARK   31  A    between atoms: _66  and  _69
REMARK   32  A    between atoms: _69  and  _70
REMARK   33  A    between atoms: _70  and  _71
REMARK   34  A    between atoms: _71  and  _72
REMARK   35  A    between atoms: _72  and  _73
REMARK   36  A    between atoms: _77  and  _79
REMARK   37  A    between atoms: _79  and  _80
REMARK   38  A    between atoms: _79  and  _82
REMARK   39  A    between atoms: _82  and  _83
REMARK   40  A    between atoms: _88  and  _89
REMARK   41  A    between atoms: _91  and  _93
REMARK   42  A    between atoms: _93  and  _94
REMARK   43  A    between atoms: _93  and  _96
REMARK   44  A    between atoms: _96  and  _97
REMARK   45  A    between atoms: _102  and  _104
REMARK   46  A    between atoms: _104  and  _105
REMARK   47  A    between atoms: _104  and  _107
REMARK   48  A    between atoms: _111  and  _112
REMARK   49  A    between atoms: _117  and  _119
REMARK   50  A    between atoms: _119  and  _120
REMARK   51  A    between atoms: _119  and  _122
REMARK   52  A    between atoms: _122  and  _123
REMARK   53  A    between atoms: _129  and  _131
REMARK   54  A    between atoms: _131  and  _132
REMARK   55  A    between atoms: _134  and  _136
REMARK   56  A    between atoms: _136  and  _137
REMARK   57  A    between atoms: _136  and  _139
REMARK   58  A    between atoms: _139  and  _140
REMARK   59  A    between atoms: _140  and  _141
REMARK   60  A    between atoms: _144  and  _146
REMARK   61  A    between atoms: _146  and  _147
REMARK   62  A    between atoms: _150  and  _152
REMARK   63  A    between atoms: _152  and  _153
REMARK   64  A    between atoms: _152  and  _155
REMARK   65  A    between atoms: _155  and  _156
REMARK   66  A    between atoms: _161  and  _163
REMARK   67  A    between atoms: _163  and  _164
REMARK   68  A    between atoms: _167  and  _169
REMARK   69  A    between atoms: _169  and  _170
REMARK   70  A    between atoms: _169  and  _172
REMARK   71  A    between atoms: _172  and  _173
REMARK   72  A    between atoms: _173  and  _174
REMARK   73  A    between atoms: _174  and  _175
REMARK   74  A    between atoms: _175  and  _176
REMARK   75  A    between atoms: _180  and  _182
REMARK   76  A    between atoms: _182  and  _183
REMARK   77  A    between atoms: _182  and  _185
REMARK   78  A    between atoms: _185  and  _186
REMARK   79  A    between atoms: _186  and  _187
REMARK   80  A    between atoms: _187  and  _188
REMARK   81  A    between atoms: _188  and  _189
REMARK   82  A    between atoms: _193  and  _195
REMARK   83  A    between atoms: _195  and  _196
REMARK   84  A    between atoms: _195  and  _198
REMARK   85  A    between atoms: _198  and  _199
REMARK   86  A    between atoms: _199  and  _200
REMARK   87  A    between atoms: _200  and  _201
REMARK   88  A    between atoms: _210  and  _212
REMARK   89  A    between atoms: _212  and  _213
REMARK   90  A    between atoms: _212  and  _215
REMARK   91  A    between atoms: _215  and  _216
REMARK   92  A    between atoms: _216  and  _217
REMARK   93  A    between atoms: _220  and  _222
REMARK   94  A    between atoms: _222  and  _223
REMARK   95  A    between atoms: _222  and  _225
REMARK   96  A    between atoms: _228  and  _230
REMARK   97  A    between atoms: _230  and  _231
REMARK   98  A    between atoms: _234  and  _236
REMARK   99  A    between atoms: _236  and  _237
REMARK  100  A    between atoms: _236  and  _239
REMARK  101  A    between atoms: _239  and  _240
REMARK  102  A    between atoms: _250  and  _252
REMARK  103  A    between atoms: _252  and  _253
REMARK  104  A    between atoms: _252  and  _255
REMARK  105  A    between atoms: _258  and  _260
REMARK  106  A    between atoms: _260  and  _261
REMARK  107  A    between atoms: _260  and  _263
REMARK  108  A    between atoms: _263  and  _264
REMARK  109  A    between atoms: _267  and  _269
REMARK  110  A    between atoms: _269  and  _270
REMARK  111  A    between atoms: _269  and  _272
REMARK  112  A    between atoms: _272  and  _273
REMARK  113  A    between atoms: _279  and  _281
REMARK  114  A    between atoms: _281  and  _282
REMARK  115  A    between atoms: _281  and  _284
REMARK  116  A    between atoms: _284  and  _285
REMARK  117  A    between atoms: _285  and  _286
REMARK  118  A    between atoms: _291  and  _293
REMARK  119  A    between atoms: _293  and  _294
REMARK  120  A    between atoms: _293  and  _296
REMARK  121  A    between atoms: _299  and  _301
REMARK  122  A    between atoms: _301  and  _302
REMARK  123  A    between atoms: _301  and  _304
REMARK  124  A    between atoms: _304  and  _305
REMARK  125  A    between atoms: _308  and  _310
REMARK  126  A    between atoms: _310  and  _311
REMARK  127  A    between atoms: _310  and  _313
REMARK  128  A    between atoms: _313  and  _314
REMARK  129  A    between atoms: _317  and  _319
REMARK  130  A    between atoms: _319  and  _320
REMARK  131  A    between atoms: _319  and  _322
REMARK  132  A    between atoms: _322  and  _323
REMARK  133  A    between atoms: _326  and  _328
REMARK  134  A    between atoms: _328  and  _329
REMARK  135  A    between atoms: _328  and  _331
REMARK  136  A    between atoms: _331  and  _332
REMARK  137  A    between atoms: _335  and  _337
REMARK  138  A    between atoms: _337  and  _338
REMARK  139  A    between atoms: _337  and  _340
REMARK  140  A    between atoms: _340  and  _341
REMARK  141  A    between atoms: _341  and  _342
REMARK  142  A    between atoms: _342  and  _343
REMARK  143  A    between atoms: _352  and  _354
REMARK  144  A    between atoms: _354  and  _355
REMARK  145  A    between atoms: _354  and  _357
REMARK  146  A    between atoms: _357  and  _358
REMARK  147  A    between atoms: _361  and  _363
REMARK  148  A    between atoms: _363  and  _364
REMARK  149  A    between atoms: _363  and  _366
REMARK  150  A    between atoms: _366  and  _367
REMARK  151  A    between atoms: _371  and  _372
REMARK  152  A    between atoms: _377  and  _379
REMARK  153  A    between atoms: _379  and  _380
REMARK  154  A    between atoms: _379  and  _382
REMARK  155  A    between atoms: _382  and  _383
REMARK  156  A    between atoms: _388  and  _389
REMARK  157  A    between atoms: _391  and  _393
REMARK  158  A    between atoms: _393  and  _394
REMARK  159  A    between atoms: _393  and  _396
REMARK  160  A    between atoms: _396  and  _397
REMARK  161  A    between atoms: _407  and  _409
REMARK  162  A    between atoms: _409  and  _410
REMARK  163  A    between atoms: _409  and  _412
REMARK  164  A    between atoms: _412  and  _413
REMARK  165  A    between atoms: _419  and  _421
REMARK  166  A    between atoms: _421  and  _422
REMARK  167  A    between atoms: _421  and  _424
REMARK  168  A    between atoms: _424  and  _425
REMARK  169  A    between atoms: _428  and  _430
REMARK  170  A    between atoms: _430  and  _431
REMARK  171  A    between atoms: _430  and  _433
REMARK  172  A    between atoms: _433  and  _434
REMARK  173  A    between atoms: _444  and  _446
REMARK  174  A    between atoms: _446  and  _447
REMARK  175  A    between atoms: _446  and  _449
REMARK  176  A    between atoms: _449  and  _450
REMARK  177  A    between atoms: _450  and  _451
REMARK  178  A    between atoms: _453  and  _455
REMARK  179  A    between atoms: _455  and  _456
REMARK  180  A    between atoms: _455  and  _458
REMARK  181  A    between atoms: _458  and  _459
REMARK  182  A    between atoms: _464  and  _466
REMARK  183  A    between atoms: _466  and  _467
REMARK  184  A    between atoms: _470  and  _471
REMARK  185  A    between atoms: _476  and  _478
REMARK  186  A    between atoms: _478  and  _479
REMARK  187  A    between atoms: _478  and  _481
REMARK  188  A    between atoms: _481  and  _482
REMARK  189  A    between atoms: _492  and  _494
REMARK  190  A    between atoms: _494  and  _495
REMARK  191  A    between atoms: _499  and  _500
REMARK  192  A    between atoms: _505  and  _507
REMARK  193  A    between atoms: _507  and  _508
REMARK  194  A    between atoms: _507  and  _510
REMARK  195  A    between atoms: _510  and  _511
REMARK  196  A    between atoms: _511  and  _512
REMARK  197  A    between atoms: _517  and  _519
REMARK  198  A    between atoms: _519  and  _520
REMARK  199  A    between atoms: _522  and  _524
REMARK  200  A    between atoms: _524  and  _525
REMARK  201  A    between atoms: _527  and  _529
REMARK  202  A    between atoms: _529  and  _530
REMARK  203  A    between atoms: _529  and  _532
REMARK  204  A    between atoms: _532  and  _533
REMARK  205  A    between atoms: _543  and  _545
REMARK  206  A    between atoms: _545  and  _546
REMARK  207  A    between atoms: _545  and  _548
REMARK  208  A    between atoms: _548  and  _549
REMARK  209  A    between atoms: _552  and  _554
REMARK  210  A    between atoms: _554  and  _555
REMARK  211  A    between atoms: _554  and  _557
REMARK  212  A    between atoms: _557  and  _558
REMARK  213  A    between atoms: _561  and  _563
REMARK  214  A    between atoms: _563  and  _564
REMARK  215  A    between atoms: _563  and  _566
REMARK  216  A    between atoms: _566  and  _567
REMARK  217  A    between atoms: _567  and  _568
REMARK  218  A    between atoms: _568  and  _569
REMARK  219  A    between atoms: _578  and  _580
REMARK  220  A    between atoms: _580  and  _581
REMARK  221  A    between atoms: _580  and  _583
REMARK  222  A    between atoms: _583  and  _584
REMARK  223  A    between atoms: _594  and  _596
REMARK  224  A    between atoms: _596  and  _597
REMARK  225  A    between atoms: _600  and  _602
REMARK  226  A    between atoms: _602  and  _603
REMARK  227  A    between atoms: _602  and  _605
REMARK  228  A    between atoms: _605  and  _606
REMARK  229  A    between atoms: _606  and  _607
REMARK  230  A    between atoms: _610  and  _612
REMARK  231  A    between atoms: _612  and  _613
REMARK  232  A    between atoms: _615  and  _617
REMARK  233  A    between atoms: _617  and  _618
REMARK  234  A    between atoms: _617  and  _620
REMARK  235  A    between atoms: _620  and  _621
REMARK  236  A    between atoms: _626  and  _628
REMARK  237  A    between atoms: _628  and  _629
REMARK  238  A    between atoms: _632  and  _634
REMARK  239  A    between atoms: _634  and  _635
REMARK  240  A    between atoms: _634  and  _637
REMARK  241  A    between atoms: _637  and  _638
REMARK  242  A    between atoms: _641  and  _643
REMARK  243  A    between atoms: _643  and  _644
REMARK  244  A    between atoms: _643  and  _646
REMARK  245  A    between atoms: _646  and  _647
REMARK  246  A    between atoms: _653  and  _655
REMARK  247  A    between atoms: _655  and  _656
REMARK  248  A    between atoms: _655  and  _658
REMARK  249  A    between atoms: _658  and  _659
REMARK  250  A    between atoms: _659  and  _660
REMARK  251  A    between atoms: _663  and  _665
REMARK  252  A    between atoms: _665  and  _666
REMARK  253  A    between atoms: _665  and  _668
REMARK  254  A    between atoms: _668  and  _669
REMARK  255  A    between atoms: _669  and  _670
REMARK  256  A    between atoms: _670  and  _671
REMARK                            x       y       z     vdW  Elec       q    Type
REMARK                         _______ _______ _______ _____ _____    ______ ____
ROOT
ATOM      1  O   HOH     1     -10.084  -9.331  20.869  0.00  0.00    +0.000 OA
ENDROOT
TORSDOF 0
REMARK  Name = ../refined-set-2016/3k00/3k00_pocket.pdb
REMARK  256 active torsions:
REMARK  status: ('A' for Active; 'I' for Inactive)
REMARK    1  A    between atoms: _1  and  _3
REMARK    2  A    between atoms: _3  and  _4
REMARK    3  A    between atoms: _3  and  _6
REMARK    4  A    between atoms: _6  and  _7
REMARK    5  A    between atoms: _10  and  _12
REMARK    6  A    between atoms: _12  and  _13
REMARK    7  A    between atoms: _12  and  _15
REMARK    8  A    between atoms: _15  and  _16
REMARK    9  A    between atoms: _19  and  _21
REMARK   10  A    between atoms: _21  and  _22
REMARK   11  A    between atoms: _21  and  _24
REMARK   12  A    between atoms: _24  and  _25
REMARK   13  A    between atoms: _27  and  _29
REMARK   14  A    between atoms: _29  and  _30
REMARK   15  A    between atoms: _29  and  _32
REMARK   16  A    between atoms: _32  and  _33
REMARK   17  A    between atoms: _38  and  _40
REMARK   18  A    between atoms: _40  and  _41
REMARK   19  A    between atoms: _40  and  _43
REMARK   20  A    between atoms: _43  and  _44
REMARK   21  A    between atoms: _44  and  _45
REMARK   22  A    between atoms: _48  and  _50
REMARK   23  A    between atoms: _50  and  _51
REMARK   24  A    between atoms: _54  and  _56
REMARK   25  A    between atoms: _56  and  _57
REMARK   26  A    between atoms: _56  and  _59
REMARK   27  A    between atoms: _59  and  _60
REMARK   28  A    between atoms: _60  and  _61
REMARK   29  A    between atoms: _64  and  _66
REMARK   30  A    between atoms: _66  and  _67
REMARK   31  A    between atoms: _66  and  _69
REMARK   32  A    between atoms: _69  and  _70
REMARK   33  A    between atoms: _70  and  _71
REMARK   34  A    between atoms: _71  and  _72
REMARK   35  A    between atoms: _72  and  _73
REMARK   36  A    between atoms: _77  and  _79
REMARK   37  A    between atoms: _79  and  _80
REMARK   38  A    between atoms: _79  and  _82
REMARK   39  A    between atoms: _82  and  _83
REMARK   40  A    between atoms: _88  and  _89
REMARK   41  A    between atoms: _91  and  _93
REMARK   42  A    between atoms: _93  and  _94
REMARK   43  A    between atoms: _93  and  _96
REMARK   44  A    between atoms: _96  and  _97
REMARK   45  A    between atoms: _102  and  _104
REMARK   46  A    between atoms: _104  and  _105
REMARK   47  A    between atoms: _104  and  _107
REMARK   48  A    between atoms: _111  and  _112
REMARK   49  A    between atoms: _117  and  _119
REMARK   50  A    between atoms: _119  and  _120
REMARK   51  A    between atoms: _119  and  _122
REMARK   52  A    between atoms: _122  and  _123
REMARK   53  A    between atoms: _129  and  _131
REMARK   54  A    between atoms: _131  and  _132
REMARK   55  A    between atoms: _134  and  _136
REMARK   56  A    between atoms: _136  and  _137
REMARK   57  A    between atoms: _136  and  _139
REMARK   58  A    between atoms: _139  and  _140
REMARK   59  A    between atoms: _140  and  _141
REMARK   60  A    between atoms: _144  and  _146
REMARK   61  A    between atoms: _146  and  _147
REMARK   62  A    between atoms: _150  and  _152
REMARK   63  A    between atoms: _152  and  _153
REMARK   64  A    between atoms: _152  and  _155
REMARK   65  A    between atoms: _155  and  _156
REMARK   66  A    between atoms: _161  and  _163
REMARK   67  A    between atoms: _163  and  _164
REMARK   68  A    between atoms: _167  and  _169
REMARK   69  A    between atoms: _169  and  _170
REMARK   70  A    between atoms: _169  and  _172
REMARK   71  A    between atoms: _172  and  _173
REMARK   72  A    between atoms: _173  and  _174
REMARK   73  A    between atoms: _174  and  _175
REMARK   74  A    between atoms: _175  and  _176
REMARK   75  A    between atoms: _180  and  _182
REMARK   76  A    between atoms: _182  and  _183
REMARK   77  A    between atoms: _182  and  _185
REMARK   78  A    between atoms: _185  and  _186
REMARK   79  A    between atoms: _186  and  _187
REMARK   80  A    between atoms: _187  and  _188
REMARK   81  A    between atoms: _188  and  _189
REMARK   82  A    between atoms: _193  and  _195
REMARK   83  A    between atoms: _195  and  _196
REMARK   84  A    between atoms: _195  and  _198
REMARK   85  A    between atoms: _198  and  _199
REMARK   86  A    between atoms: _199  and  _200
REMARK   87  A    between atoms: _200  and  _201
REMARK   88  A    between atoms: _210  and  _212
REMARK   89  A    between atoms: _212  and  _213
REMARK   90  A    between atoms: _212  and  _215
REMARK   91  A    between atoms: _215  and  _216
REMARK   92  A    between atoms: _216  and  _217
REMARK   93  A    between atoms: _220  and  _222
REMARK   94  A    between atoms: _222  and  _223
REMARK   95  A    between atoms: _222  and  _225
REMARK   96  A    between atoms: _228  and  _230
REMARK   97  A    between atoms: _230  and  _231
REMARK   98  A    between atoms: _234  and  _236
REMARK   99  A    between atoms: _236  and  _237
REMARK  100  A    between atoms: _236  and  _239
REMARK  101  A    between atoms: _239  and  _240
REMARK  102  A    between atoms: _250  and  _252
REMARK  103  A    between atoms: _252  and  _253
REMARK  104  A    between atoms: _252  and  _255
REMARK  105  A    between atoms: _258  and  _260
REMARK  106  A    between atoms: _260  and  _261
REMARK  107  A    between atoms: _260  and  _263
REMARK  108  A    between atoms: _263  and  _264
REMARK  109  A    between atoms: _267  and  _269
REMARK  110  A    between atoms: _269  and  _270
REMARK  111  A    between atoms: _269  and  _272
REMARK  112  A    between atoms: _272  and  _273
REMARK  113  A    between atoms: _279  and  _281
REMARK  114  A    between atoms: _281  and  _282
REMARK  115  A    between atoms: _281  and  _284
REMARK  116  A    between atoms: _284  and  _285
REMARK  117  A    between atoms: _285  and  _286
REMARK  118  A    between atoms: _291  and  _293
REMARK  119  A    between atoms: _293  and  _294
REMARK  120  A    between atoms: _293  and  _296
REMARK  121  A    between atoms: _299  and  _301
REMARK  122  A    between atoms: _301  and  _302
REMARK  123  A    between atoms: _301  and  _304
REMARK  124  A    between atoms: _304  and  _305
REMARK  125  A    between atoms: _308  and  _310
REMARK  126  A    between atoms: _310  and  _311
REMARK  127  A    between atoms: _310  and  _313
REMARK  128  A    between atoms: _313  and  _314
REMARK  129  A    between atoms: _317  and  _319
REMARK  130  A    between atoms: _319  and  _320
REMARK  131  A    between atoms: _319  and  _322
REMARK  132  A    between atoms: _322  and  _323
REMARK  133  A    between atoms: _326  and  _328
REMARK  134  A    between atoms: _328  and  _329
REMARK  135  A    between atoms: _328  and  _331
REMARK  136  A    between atoms: _331  and  _332
REMARK  137  A    between atoms: _335  and  _337
REMARK  138  A    between atoms: _337  and  _338
REMARK  139  A    between atoms: _337  and  _340
REMARK  140  A    between atoms: _340  and  _341
REMARK  141  A    between atoms: _341  and  _342
REMARK  142  A    between atoms: _342  and  _343
REMARK  143  A    between atoms: _352  and  _354
REMARK  144  A    between atoms: _354  and  _355
REMARK  145  A    between atoms: _354  and  _357
REMARK  146  A    between atoms: _357  and  _358
REMARK  147  A    between atoms: _361  and  _363
REMARK  148  A    between atoms: _363  and  _364
REMARK  149  A    between atoms: _363  and  _366
REMARK  150  A    between atoms: _366  and  _367
REMARK  151  A    between atoms: _371  and  _372
REMARK  152  A    between atoms: _377  and  _379
REMARK  153  A    between atoms: _379  and  _380
REMARK  154  A    between atoms: _379  and  _382
REMARK  155  A    between atoms: _382  and  _383
REMARK  156  A    between atoms: _388  and  _389
REMARK  157  A    between atoms: _391  and  _393
REMARK  158  A    between atoms: _393  and  _394
REMARK  159  A    between atoms: _393  and  _396
REMARK  160  A    between atoms: _396  and  _397
REMARK  161  A    between atoms: _407  and  _409
REMARK  162  A    between atoms: _409  and  _410
REMARK  163  A    between atoms: _409  and  _412
REMARK  164  A    between atoms: _412  and  _413
REMARK  165  A    between atoms: _419  and  _421
REMARK  166  A    between atoms: _421  and  _422
REMARK  167  A    between atoms: _421  and  _424
REMARK  168  A    between atoms: _424  and  _425
REMARK  169  A    between atoms: _428  and  _430
REMARK  170  A    between atoms: _430  and  _431
REMARK  171  A    between atoms: _430  and  _433
REMARK  172  A    between atoms: _433  and  _434
REMARK  173  A    between atoms: _444  and  _446
REMARK  174  A    between atoms: _446  and  _447
REMARK  175  A    between atoms: _446  and  _449
REMARK  176  A    between atoms: _449  and  _450
REMARK  177  A    between atoms: _450  and  _451
REMARK  178  A    between atoms: _453  and  _455
REMARK  179  A    between atoms: _455  and  _456
REMARK  180  A    between atoms: _455  and  _458
REMARK  181  A    between atoms: _458  and  _459
REMARK  182  A    between atoms: _464  and  _466
REMARK  183  A    between atoms: _466  and  _467
REMARK  184  A    between atoms: _470  and  _471
REMARK  185  A    between atoms: _476  and  _478
REMARK  186  A    between atoms: _478  and  _479
REMARK  187  A    between atoms: _478  and  _481
REMARK  188  A    between atoms: _481  and  _482
REMARK  189  A    between atoms: _492  and  _494
REMARK  190  A    between atoms: _494  and  _495
REMARK  191  A    between atoms: _499  and  _500
REMARK  192  A    between atoms: _505  and  _507
REMARK  193  A    between atoms: _507  and  _508
REMARK  194  A    between atoms: _507  and  _510
REMARK  195  A    between atoms: _510  and  _511
REMARK  196  A    between atoms: _511  and  _512
REMARK  197  A    between atoms: _517  and  _519
REMARK  198  A    between atoms: _519  and  _520
REMARK  199  A    between atoms: _522  and  _524
REMARK  200  A    between atoms: _524  and  _525
REMARK  201  A    between atoms: _527  and  _529
REMARK  202  A    between atoms: _529  and  _530
REMARK  203  A    between atoms: _529  and  _532
REMARK  204  A    between atoms: _532  and  _533
REMARK  205  A    between atoms: _543  and  _545
REMARK  206  A    between atoms: _545  and  _546
REMARK  207  A    between atoms: _545  and  _548
REMARK  208  A    between atoms: _548  and  _549
REMARK  209  A    between atoms: _552  and  _554
REMARK  210  A    between atoms: _554  and  _555
REMARK  211  A    between atoms: _554  and  _557
REMARK  212  A    between atoms: _557  and  _558
REMARK  213  A    between atoms: _561  and  _563
REMARK  214  A    between atoms: _563  and  _564
REMARK  215  A    between atoms: _563  and  _566
REMARK  216  A    between atoms: _566  and  _567
REMARK  217  A    between atoms: _567  and  _568
REMARK  218  A    between atoms: _568  and  _569
REMARK  219  A    between atoms: _578  and  _580
REMARK  220  A    between atoms: _580  and  _581
REMARK  221  A    between atoms: _580  and  _583
REMARK  222  A    between atoms: _583  and  _584
REMARK  223  A    between atoms: _594  and  _596
REMARK  224  A    between atoms: _596  and  _597
REMARK  225  A    between atoms: _600  and  _602
REMARK  226  A    between atoms: _602  and  _603
REMARK  227  A    between atoms: _602  and  _605
REMARK  228  A    between atoms: _605  and  _606
REMARK  229  A    between atoms: _606  and  _607
REMARK  230  A    between atoms: _610  and  _612
REMARK  231  A    between atoms: _612  and  _613
REMARK  232  A    between atoms: _615  and  _617
REMARK  233  A    between atoms: _617  and  _618
REMARK  234  A    between atoms: _617  and  _620
REMARK  235  A    between atoms: _620  and  _621
REMARK  236  A    between atoms: _626  and  _628
REMARK  237  A    between atoms: _628  and  _629
REMARK  238  A    between atoms: _632  and  _634
REMARK  239  A    between atoms: _634  and  _635
REMARK  240  A    between atoms: _634  and  _637
REMARK  241  A    between atoms: _637  and  _638
REMARK  242  A    between atoms: _641  and  _643
REMARK  243  A    between atoms: _643  and  _644
REMARK  244  A    between atoms: _643  and  _646
REMARK  245  A    between atoms: _646  and  _647
REMARK  246  A    between atoms: _653  and  _655
REMARK  247  A    between atoms: _655  and  _656
REMARK  248  A    between atoms: _655  and  _658
REMARK  249  A    between atoms: _658  and  _659
REMARK  250  A    between atoms: _659  and  _660
REMARK  251  A    between atoms: _663  and  _665
REMARK  252  A    between atoms: _665  and  _666
REMARK  253  A    between atoms: _665  and  _668
REMARK  254  A    between atoms: _668  and  _669
REMARK  255  A    between atoms: _669  and  _670
REMARK  256  A    between atoms: _670  and  _671
REMARK                            x       y       z     vdW  Elec       q    Type
REMARK                         _______ _______ _______ _____ _____    ______ ____
ROOT
ATOM      1  O   HOH     1      -3.452 -19.821  22.577  0.00  0.00    +0.000 OA
ENDROOT
TORSDOF 0
REMARK  Name = ../refined-set-2016/3k00/3k00_pocket.pdb
REMARK  256 active torsions:
REMARK  status: ('A' for Active; 'I' for Inactive)
REMARK    1  A    between atoms: _1  and  _3
REMARK    2  A    between atoms: _3  and  _4
REMARK    3  A    between atoms: _3  and  _6
REMARK    4  A    between atoms: _6  and  _7
REMARK    5  A    between atoms: _10  and  _12
REMARK    6  A    between atoms: _12  and  _13
REMARK    7  A    between atoms: _12  and  _15
REMARK    8  A    between atoms: _15  and  _16
REMARK    9  A    between atoms: _19  and  _21
REMARK   10  A    between atoms: _21  and  _22
REMARK   11  A    between atoms: _21  and  _24
REMARK   12  A    between atoms: _24  and  _25
REMARK   13  A    between atoms: _27  and  _29
REMARK   14  A    between atoms: _29  and  _30
REMARK   15  A    between atoms: _29  and  _32
REMARK   16  A    between atoms: _32  and  _33
REMARK   17  A    between atoms: _38  and  _40
REMARK   18  A    between atoms: _40  and  _41
REMARK   19  A    between atoms: _40  and  _43
REMARK   20  A    between atoms: _43  and  _44
REMARK   21  A    between atoms: _44  and  _45
REMARK   22  A    between atoms: _48  and  _50
REMARK   23  A    between atoms: _50  and  _51
REMARK   24  A    between atoms: _54  and  _56
REMARK   25  A    between atoms: _56  and  _57
REMARK   26  A    between atoms: _56  and  _59
REMARK   27  A    between atoms: _59  and  _60
REMARK   28  A    between atoms: _60  and  _61
REMARK   29  A    between atoms: _64  and  _66
REMARK   30  A    between atoms: _66  and  _67
REMARK   31  A    between atoms: _66  and  _69
REMARK   32  A    between atoms: _69  and  _70
REMARK   33  A    between atoms: _70  and  _71
REMARK   34  A    between atoms: _71  and  _72
REMARK   35  A    between atoms: _72  and  _73
REMARK   36  A    between atoms: _77  and  _79
REMARK   37  A    between atoms: _79  and  _80
REMARK   38  A    between atoms: _79  and  _82
REMARK   39  A    between atoms: _82  and  _83
REMARK   40  A    between atoms: _88  and  _89
REMARK   41  A    between atoms: _91  and  _93
REMARK   42  A    between atoms: _93  and  _94
REMARK   43  A    between atoms: _93  and  _96
REMARK   44  A    between atoms: _96  and  _97
REMARK   45  A    between atoms: _102  and  _104
REMARK   46  A    between atoms: _104  and  _105
REMARK   47  A    between atoms: _104  and  _107
REMARK   48  A    between atoms: _111  and  _112
REMARK   49  A    between atoms: _117  and  _119
REMARK   50  A    between atoms: _119  and  _120
REMARK   51  A    between atoms: _119  and  _122
REMARK   52  A    between atoms: _122  and  _123
REMARK   53  A    between atoms: _129  and  _131
REMARK   54  A    between atoms: _131  and  _132
REMARK   55  A    between atoms: _134  and  _136
REMARK   56  A    between atoms: _136  and  _137
REMARK   57  A    between atoms: _136  and  _139
REMARK   58  A    between atoms: _139  and  _140
REMARK   59  A    between atoms: _140  and  _141
REMARK   60  A    between atoms: _144  and  _146
REMARK   61  A    between atoms: _146  and  _147
REMARK   62  A    between atoms: _150  and  _152
REMARK   63  A    between atoms: _152  and  _153
REMARK   64  A    between atoms: _152  and  _155
REMARK   65  A    between atoms: _155  and  _156
REMARK   66  A    between atoms: _161  and  _163
REMARK   67  A    between atoms: _163  and  _164
REMARK   68  A    between atoms: _167  and  _169
REMARK   69  A    between atoms: _169  and  _170
REMARK   70  A    between atoms: _169  and  _172
REMARK   71  A    between atoms: _172  and  _173
REMARK   72  A    between atoms: _173  and  _174
REMARK   73  A    between atoms: _174  and  _175
REMARK   74  A    between atoms: _175  and  _176
REMARK   75  A    between atoms: _180  and  _182
REMARK   76  A    between atoms: _182  and  _183
REMARK   77  A    between atoms: _182  and  _185
REMARK   78  A    between atoms: _185  and  _186
REMARK   79  A    between atoms: _186  and  _187
REMARK   80  A    between atoms: _187  and  _188
REMARK   81  A    between atoms: _188  and  _189
REMARK   82  A    between atoms: _193  and  _195
REMARK   83  A    between atoms: _195  and  _196
REMARK   84  A    between atoms: _195  and  _198
REMARK   85  A    between atoms: _198  and  _199
REMARK   86  A    between atoms: _199  and  _200
REMARK   87  A    between atoms: _200  and  _201
REMARK   88  A    between atoms: _210  and  _212
REMARK   89  A    between atoms: _212  and  _213
REMARK   90  A    between atoms: _212  and  _215
REMARK   91  A    between atoms: _215  and  _216
REMARK   92  A    between atoms: _216  and  _217
REMARK   93  A    between atoms: _220  and  _222
REMARK   94  A    between atoms: _222  and  _223
REMARK   95  A    between atoms: _222  and  _225
REMARK   96  A    between atoms: _228  and  _230
REMARK   97  A    between atoms: _230  and  _231
REMARK   98  A    between atoms: _234  and  _236
REMARK   99  A    between atoms: _236  and  _237
REMARK  100  A    between atoms: _236  and  _239
REMARK  101  A    between atoms: _239  and  _240
REMARK  102  A    between atoms: _250  and  _252
REMARK  103  A    between atoms: _252  and  _253
REMARK  104  A    between atoms: _252  and  _255
REMARK  105  A    between atoms: _258  and  _260
REMARK  106  A    between atoms: _260  and  _261
REMARK  107  A    between atoms: _260  and  _263
REMARK  108  A    between atoms: _263  and  _264
REMARK  109  A    between atoms: _267  and  _269
REMARK  110  A    between atoms: _269  and  _270
REMARK  111  A    between atoms: _269  and  _272
REMARK  112  A    between atoms: _272  and  _273
REMARK  113  A    between atoms: _279  and  _281
REMARK  114  A    between atoms: _281  and  _282
REMARK  115  A    between atoms: _281  and  _284
REMARK  116  A    between atoms: _284  and  _285
REMARK  117  A    between atoms: _285  and  _286
REMARK  118  A    between atoms: _291  and  _293
REMARK  119  A    between atoms: _293  and  _294
REMARK  120  A    between atoms: _293  and  _296
REMARK  121  A    between atoms: _299  and  _301
REMARK  122  A    between atoms: _301  and  _302
REMARK  123  A    between atoms: _301  and  _304
REMARK  124  A    between atoms: _304  and  _305
REMARK  125  A    between atoms: _308  and  _310
REMARK  126  A    between atoms: _310  and  _311
REMARK  127  A    between atoms: _310  and  _313
REMARK  128  A    between atoms: _313  and  _314
REMARK  129  A    between atoms: _317  and  _319
REMARK  130  A    between atoms: _319  and  _320
REMARK  131  A    between atoms: _319  and  _322
REMARK  132  A    between atoms: _322  and  _323
REMARK  133  A    between atoms: _326  and  _328
REMARK  134  A    between atoms: _328  and  _329
REMARK  135  A    between atoms: _328  and  _331
REMARK  136  A    between atoms: _331  and  _332
REMARK  137  A    between atoms: _335  and  _337
REMARK  138  A    between atoms: _337  and  _338
REMARK  139  A    between atoms: _337  and  _340
REMARK  140  A    between atoms: _340  and  _341
REMARK  141  A    between atoms: _341  and  _342
REMARK  142  A    between atoms: _342  and  _343
REMARK  143  A    between atoms: _352  and  _354
REMARK  144  A    between atoms: _354  and  _355
REMARK  145  A    between atoms: _354  and  _357
REMARK  146  A    between atoms: _357  and  _358
REMARK  147  A    between atoms: _361  and  _363
REMARK  148  A    between atoms: _363  and  _364
REMARK  149  A    between atoms: _363  and  _366
REMARK  150  A    between atoms: _366  and  _367
REMARK  151  A    between atoms: _371  and  _372
REMARK  152  A    between atoms: _377  and  _379
REMARK  153  A    between atoms: _379  and  _380
REMARK  154  A    between atoms: _379  and  _382
REMARK  155  A    between atoms: _382  and  _383
REMARK  156  A    between atoms: _388  and  _389
REMARK  157  A    between atoms: _391  and  _393
REMARK  158  A    between atoms: _393  and  _394
REMARK  159  A    between atoms: _393  and  _396
REMARK  160  A    between atoms: _396  and  _397
REMARK  161  A    between atoms: _407  and  _409
REMARK  162  A    between atoms: _409  and  _410
REMARK  163  A    between atoms: _409  and  _412
REMARK  164  A    between atoms: _412  and  _413
REMARK  165  A    between atoms: _419  and  _421
REMARK  166  A    between atoms: _421  and  _422
REMARK  167  A    between atoms: _421  and  _424
REMARK  168  A    between atoms: _424  and  _425
REMARK  169  A    between atoms: _428  and  _430
REMARK  170  A    between atoms: _430  and  _431
REMARK  171  A    between atoms: _430  and  _433
REMARK  172  A    between atoms: _433  and  _434
REMARK  173  A    between atoms: _444  and  _446
REMARK  174  A    between atoms: _446  and  _447
REMARK  175  A    between atoms: _446  and  _449
REMARK  176  A    between atoms: _449  and  _450
REMARK  177  A    between atoms: _450  and  _451
REMARK  178  A    between atoms: _453  and  _455
REMARK  179  A    between atoms: _455  and  _456
REMARK  180  A    between atoms: _455  and  _458
REMARK  181  A    between atoms: _458  and  _459
REMARK  182  A    between atoms: _464  and  _466
REMARK  183  A    between atoms: _466  and  _467
REMARK  184  A    between atoms: _470  and  _471
REMARK  185  A    between atoms: _476  and  _478
REMARK  186  A    between atoms: _478  and  _479
REMARK  187  A    between atoms: _478  and  _481
REMARK  188  A    between atoms: _481  and  _482
REMARK  189  A    between atoms: _492  and  _494
REMARK  190  A    between atoms: _494  and  _495
REMARK  191  A    between atoms: _499  and  _500
REMARK  192  A    between atoms: _505  and  _507
REMARK  193  A    between atoms: _507  and  _508
REMARK  194  A    between atoms: _507  and  _510
REMARK  195  A    between atoms: _510  and  _511
REMARK  196  A    between atoms: _511  and  _512
REMARK  197  A    between atoms: _517  and  _519
REMARK  198  A    between atoms: _519  and  _520
REMARK  199  A    between atoms: _522  and  _524
REMARK  200  A    between atoms: _524  and  _525
REMARK  201  A    between atoms: _527  and  _529
REMARK  202  A    between atoms: _529  and  _530
REMARK  203  A    between atoms: _529  and  _532
REMARK  204  A    between atoms: _532  and  _533
REMARK  205  A    between atoms: _543  and  _545
REMARK  206  A    between atoms: _545  and  _546
REMARK  207  A    between atoms: _545  and  _548
REMARK  208  A    between atoms: _548  and  _549
REMARK  209  A    between atoms: _552  and  _554
REMARK  210  A    between atoms: _554  and  _555
REMARK  211  A    between atoms: _554  and  _557
REMARK  212  A    between atoms: _557  and  _558
REMARK  213  A    between atoms: _561  and  _563
REMARK  214  A    between atoms: _563  and  _564
REMARK  215  A    between atoms: _563  and  _566
REMARK  216  A    between atoms: _566  and  _567
REMARK  217  A    between atoms: _567  and  _568
REMARK  218  A    between atoms: _568  and  _569
REMARK  219  A    between atoms: _578  and  _580
REMARK  220  A    between atoms: _580  and  _581
REMARK  221  A    between atoms: _580  and  _583
REMARK  222  A    between atoms: _583  and  _584
REMARK  223  A    between atoms: _594  and  _596
REMARK  224  A    between atoms: _596  and  _597
REMARK  225  A    between atoms: _600  and  _602
REMARK  226  A    between atoms: _602  and  _603
REMARK  227  A    between atoms: _602  and  _605
REMARK  228  A    between atoms: _605  and  _606
REMARK  229  A    between atoms: _606  and  _607
REMARK  230  A    between atoms: _610  and  _612
REMARK  231  A    between atoms: _612  and  _613
REMARK  232  A    between atoms: _615  and  _617
REMARK  233  A    between atoms: _617  and  _618
REMARK  234  A    between atoms: _617  and  _620
REMARK  235  A    between atoms: _620  and  _621
REMARK  236  A    between atoms: _626  and  _628
REMARK  237  A    between atoms: _628  and  _629
REMARK  238  A    between atoms: _632  and  _634
REMARK  239  A    between atoms: _634  and  _635
REMARK  240  A    between atoms: _634  and  _637
REMARK  241  A    between atoms: _637  and  _638
REMARK  242  A    between atoms: _641  and  _643
REMARK  243  A    between atoms: _643  and  _644
REMARK  244  A    between atoms: _643  and  _646
REMARK  245  A    between atoms: _646  and  _647
REMARK  246  A    between atoms: _653  and  _655
REMARK  247  A    between atoms: _655  and  _656
REMARK  248  A    between atoms: _655  and  _658
REMARK  249  A    between atoms: _658  and  _659
REMARK  250  A    between atoms: _659  and  _660
REMARK  251  A    between atoms: _663  and  _665
REMARK  252  A    between atoms: _665  and  _666
REMARK  253  A    between atoms: _665  and  _668
REMARK  254  A    between atoms: _668  and  _669
REMARK  255  A    between atoms: _669  and  _670
REMARK  256  A    between atoms: _670  and  _671
REMARK                            x       y       z     vdW  Elec       q    Type
REMARK                         _______ _______ _______ _____ _____    ______ ____
ROOT
ATOM      1  O   HOH     1     -12.316  -7.525  14.972  0.00  0.00    +0.000 OA
ENDROOT
TORSDOF 0
REMARK  Name = ../refined-set-2016/3k00/3k00_pocket.pdb
REMARK  256 active torsions:
REMARK  status: ('A' for Active; 'I' for Inactive)
REMARK    1  A    between atoms: _1  and  _3
REMARK    2  A    between atoms: _3  and  _4
REMARK    3  A    between atoms: _3  and  _6
REMARK    4  A    between atoms: _6  and  _7
REMARK    5  A    between atoms: _10  and  _12
REMARK    6  A    between atoms: _12  and  _13
REMARK    7  A    between atoms: _12  and  _15
REMARK    8  A    between atoms: _15  and  _16
REMARK    9  A    between atoms: _19  and  _21
REMARK   10  A    between atoms: _21  and  _22
REMARK   11  A    between atoms: _21  and  _24
REMARK   12  A    between atoms: _24  and  _25
REMARK   13  A    between atoms: _27  and  _29
REMARK   14  A    between atoms: _29  and  _30
REMARK   15  A    between atoms: _29  and  _32
REMARK   16  A    between atoms: _32  and  _33
REMARK   17  A    between atoms: _38  and  _40
REMARK   18  A    between atoms: _40  and  _41
REMARK   19  A    between atoms: _40  and  _43
REMARK   20  A    between atoms: _43  and  _44
REMARK   21  A    between atoms: _44  and  _45
REMARK   22  A    between atoms: _48  and  _50
REMARK   23  A    between atoms: _50  and  _51
REMARK   24  A    between atoms: _54  and  _56
REMARK   25  A    between atoms: _56  and  _57
REMARK   26  A    between atoms: _56  and  _59
REMARK   27  A    between atoms: _59  and  _60
REMARK   28  A    between atoms: _60  and  _61
REMARK   29  A    between atoms: _64  and  _66
REMARK   30  A    between atoms: _66  and  _67
REMARK   31  A    between atoms: _66  and  _69
REMARK   32  A    between atoms: _69  and  _70
REMARK   33  A    between atoms: _70  and  _71
REMARK   34  A    between atoms: _71  and  _72
REMARK   35  A    between atoms: _72  and  _73
REMARK   36  A    between atoms: _77  and  _79
REMARK   37  A    between atoms: _79  and  _80
REMARK   38  A    between atoms: _79  and  _82
REMARK   39  A    between atoms: _82  and  _83
REMARK   40  A    between atoms: _88  and  _89
REMARK   41  A    between atoms: _91  and  _93
REMARK   42  A    between atoms: _93  and  _94
REMARK   43  A    between atoms: _93  and  _96
REMARK   44  A    between atoms: _96  and  _97
REMARK   45  A    between atoms: _102  and  _104
REMARK   46  A    between atoms: _104  and  _105
REMARK   47  A    between atoms: _104  and  _107
REMARK   48  A    between atoms: _111  and  _112
REMARK   49  A    between atoms: _117  and  _119
REMARK   50  A    between atoms: _119  and  _120
REMARK   51  A    between atoms: _119  and  _122
REMARK   52  A    between atoms: _122  and  _123
REMARK   53  A    between atoms: _129  and  _131
REMARK   54  A    between atoms: _131  and  _132
REMARK   55  A    between atoms: _134  and  _136
REMARK   56  A    between atoms: _136  and  _137
REMARK   57  A    between atoms: _136  and  _139
REMARK   58  A    between atoms: _139  and  _140
REMARK   59  A    between atoms: _140  and  _141
REMARK   60  A    between atoms: _144  and  _146
REMARK   61  A    between atoms: _146  and  _147
REMARK   62  A    between atoms: _150  and  _152
REMARK   63  A    between atoms: _152  and  _153
REMARK   64  A    between atoms: _152  and  _155
REMARK   65  A    between atoms: _155  and  _156
REMARK   66  A    between atoms: _161  and  _163
REMARK   67  A    between atoms: _163  and  _164
REMARK   68  A    between atoms: _167  and  _169
REMARK   69  A    between atoms: _169  and  _170
REMARK   70  A    between atoms: _169  and  _172
REMARK   71  A    between atoms: _172  and  _173
REMARK   72  A    between atoms: _173  and  _174
REMARK   73  A    between atoms: _174  and  _175
REMARK   74  A    between atoms: _175  and  _176
REMARK   75  A    between atoms: _180  and  _182
REMARK   76  A    between atoms: _182  and  _183
REMARK   77  A    between atoms: _182  and  _185
REMARK   78  A    between atoms: _185  and  _186
REMARK   79  A    between atoms: _186  and  _187
REMARK   80  A    between atoms: _187  and  _188
REMARK   81  A    between atoms: _188  and  _189
REMARK   82  A    between atoms: _193  and  _195
REMARK   83  A    between atoms: _195  and  _196
REMARK   84  A    between atoms: _195  and  _198
REMARK   85  A    between atoms: _198  and  _199
REMARK   86  A    between atoms: _199  and  _200
REMARK   87  A    between atoms: _200  and  _201
REMARK   88  A    between atoms: _210  and  _212
REMARK   89  A    between atoms: _212  and  _213
REMARK   90  A    between atoms: _212  and  _215
REMARK   91  A    between atoms: _215  and  _216
REMARK   92  A    between atoms: _216  and  _217
REMARK   93  A    between atoms: _220  and  _222
REMARK   94  A    between atoms: _222  and  _223
REMARK   95  A    between atoms: _222  and  _225
REMARK   96  A    between atoms: _228  and  _230
REMARK   97  A    between atoms: _230  and  _231
REMARK   98  A    between atoms: _234  and  _236
REMARK   99  A    between atoms: _236  and  _237
REMARK  100  A    between atoms: _236  and  _239
REMARK  101  A    between atoms: _239  and  _240
REMARK  102  A    between atoms: _250  and  _252
REMARK  103  A    between atoms: _252  and  _253
REMARK  104  A    between atoms: _252  and  _255
REMARK  105  A    between atoms: _258  and  _260
REMARK  106  A    between atoms: _260  and  _261
REMARK  107  A    between atoms: _260  and  _263
REMARK  108  A    between atoms: _263  and  _264
REMARK  109  A    between atoms: _267  and  _269
REMARK  110  A    between atoms: _269  and  _270
REMARK  111  A    between atoms: _269  and  _272
REMARK  112  A    between atoms: _272  and  _273
REMARK  113  A    between atoms: _279  and  _281
REMARK  114  A    between atoms: _281  and  _282
REMARK  115  A    between atoms: _281  and  _284
REMARK  116  A    between atoms: _284  and  _285
REMARK  117  A    between atoms: _285  and  _286
REMARK  118  A    between atoms: _291  and  _293
REMARK  119  A    between atoms: _293  and  _294
REMARK  120  A    between atoms: _293  and  _296
REMARK  121  A    between atoms: _299  and  _301
REMARK  122  A    between atoms: _301  and  _302
REMARK  123  A    between atoms: _301  and  _304
REMARK  124  A    between atoms: _304  and  _305
REMARK  125  A    between atoms: _308  and  _310
REMARK  126  A    between atoms: _310  and  _311
REMARK  127  A    between atoms: _310  and  _313
REMARK  128  A    between atoms: _313  and  _314
REMARK  129  A    between atoms: _317  and  _319
REMARK  130  A    between atoms: _319  and  _320
REMARK  131  A    between atoms: _319  and  _322
REMARK  132  A    between atoms: _322  and  _323
REMARK  133  A    between atoms: _326  and  _328
REMARK  134  A    between atoms: _328  and  _329
REMARK  135  A    between atoms: _328  and  _331
REMARK  136  A    between atoms: _331  and  _332
REMARK  137  A    between atoms: _335  and  _337
REMARK  138  A    between atoms: _337  and  _338
REMARK  139  A    between atoms: _337  and  _340
REMARK  140  A    between atoms: _340  and  _341
REMARK  141  A    between atoms: _341  and  _342
REMARK  142  A    between atoms: _342  and  _343
REMARK  143  A    between atoms: _352  and  _354
REMARK  144  A    between atoms: _354  and  _355
REMARK  145  A    between atoms: _354  and  _357
REMARK  146  A    between atoms: _357  and  _358
REMARK  147  A    between atoms: _361  and  _363
REMARK  148  A    between atoms: _363  and  _364
REMARK  149  A    between atoms: _363  and  _366
REMARK  150  A    between atoms: _366  and  _367
REMARK  151  A    between atoms: _371  and  _372
REMARK  152  A    between atoms: _377  and  _379
REMARK  153  A    between atoms: _379  and  _380
REMARK  154  A    between atoms: _379  and  _382
REMARK  155  A    between atoms: _382  and  _383
REMARK  156  A    between atoms: _388  and  _389
REMARK  157  A    between atoms: _391  and  _393
REMARK  158  A    between atoms: _393  and  _394
REMARK  159  A    between atoms: _393  and  _396
REMARK  160  A    between atoms: _396  and  _397
REMARK  161  A    between atoms: _407  and  _409
REMARK  162  A    between atoms: _409  and  _410
REMARK  163  A    between atoms: _409  and  _412
REMARK  164  A    between atoms: _412  and  _413
REMARK  165  A    between atoms: _419  and  _421
REMARK  166  A    between atoms: _421  and  _422
REMARK  167  A    between atoms: _421  and  _424
REMARK  168  A    between atoms: _424  and  _425
REMARK  169  A    between atoms: _428  and  _430
REMARK  170  A    between atoms: _430  and  _431
REMARK  171  A    between atoms: _430  and  _433
REMARK  172  A    between atoms: _433  and  _434
REMARK  173  A    between atoms: _444  and  _446
REMARK  174  A    between atoms: _446  and  _447
REMARK  175  A    between atoms: _446  and  _449
REMARK  176  A    between atoms: _449  and  _450
REMARK  177  A    between atoms: _450  and  _451
REMARK  178  A    between atoms: _453  and  _455
REMARK  179  A    between atoms: _455  and  _456
REMARK  180  A    between atoms: _455  and  _458
REMARK  181  A    between atoms: _458  and  _459
REMARK  182  A    between atoms: _464  and  _466
REMARK  183  A    between atoms: _466  and  _467
REMARK  184  A    between atoms: _470  and  _471
REMARK  185  A    between atoms: _476  and  _478
REMARK  186  A    between atoms: _478  and  _479
REMARK  187  A    between atoms: _478  and  _481
REMARK  188  A    between atoms: _481  and  _482
REMARK  189  A    between atoms: _492  and  _494
REMARK  190  A    between atoms: _494  and  _495
REMARK  191  A    between atoms: _499  and  _500
REMARK  192  A    between atoms: _505  and  _507
REMARK  193  A    between atoms: _507  and  _508
REMARK  194  A    between atoms: _507  and  _510
REMARK  195  A    between atoms: _510  and  _511
REMARK  196  A    between atoms: _511  and  _512
REMARK  197  A    between atoms: _517  and  _519
REMARK  198  A    between atoms: _519  and  _520
REMARK  199  A    between atoms: _522  and  _524
REMARK  200  A    between atoms: _524  and  _525
REMARK  201  A    between atoms: _527  and  _529
REMARK  202  A    between atoms: _529  and  _530
REMARK  203  A    between atoms: _529  and  _532
REMARK  204  A    between atoms: _532  and  _533
REMARK  205  A    between atoms: _543  and  _545
REMARK  206  A    between atoms: _545  and  _546
REMARK  207  A    between atoms: _545  and  _548
REMARK  208  A    between atoms: _548  and  _549
REMARK  209  A    between atoms: _552  and  _554
REMARK  210  A    between atoms: _554  and  _555
REMARK  211  A    between atoms: _554  and  _557
REMARK  212  A    between atoms: _557  and  _558
REMARK  213  A    between atoms: _561  and  _563
REMARK  214  A    between atoms: _563  and  _564
REMARK  215  A    between atoms: _563  and  _566
REMARK  216  A    between atoms: _566  and  _567
REMARK  217  A    between atoms: _567  and  _568
REMARK  218  A    between atoms: _568  and  _569
REMARK  219  A    between atoms: _578  and  _580
REMARK  220  A    between atoms: _580  and  _581
REMARK  221  A    between atoms: _580  and  _583
REMARK  222  A    between atoms: _583  and  _584
REMARK  223  A    between atoms: _594  and  _596
REMARK  224  A    between atoms: _596  and  _597
REMARK  225  A    between atoms: _600  and  _602
REMARK  226  A    between atoms: _602  and  _603
REMARK  227  A    between atoms: _602  and  _605
REMARK  228  A    between atoms: _605  and  _606
REMARK  229  A    between atoms: _606  and  _607
REMARK  230  A    between atoms: _610  and  _612
REMARK  231  A    between atoms: _612  and  _613
REMARK  232  A    between atoms: _615  and  _617
REMARK  233  A    between atoms: _617  and  _618
REMARK  234  A    between atoms: _617  and  _620
REMARK  235  A    between atoms: _620  and  _621
REMARK  236  A    between atoms: _626  and  _628
REMARK  237  A    between atoms: _628  and  _629
REMARK  238  A    between atoms: _632  and  _634
REMARK  239  A    between atoms: _634  and  _635
REMARK  240  A    between atoms: _634  and  _637
REMARK  241  A    between atoms: _637  and  _638
REMARK  242  A    between atoms: _641  and  _643
REMARK  243  A    between atoms: _643  and  _644
REMARK  244  A    between atoms: _643  and  _646
REMARK  245  A    between atoms: _646  and  _647
REMARK  246  A    between atoms: _653  and  _655
REMARK  247  A    between atoms: _655  and  _656
REMARK  248  A    between atoms: _655  and  _658
REMARK  249  A    between atoms: _658  and  _659
REMARK  250  A    between atoms: _659  and  _660
REMARK  251  A    between atoms: _663  and  _665
REMARK  252  A    between atoms: _665  and  _666
REMARK  253  A    between atoms: _665  and  _668
REMARK  254  A    between atoms: _668  and  _669
REMARK  255  A    between atoms: _669  and  _670
REMARK  256  A    between atoms: _670  and  _671
REMARK                            x       y       z     vdW  Elec       q    Type
REMARK                         _______ _______ _______ _____ _____    ______ ____
ROOT
ATOM      1  O   HOH     1      -7.716 -17.878  22.785  0.00  0.00    +0.000 OA
ENDROOT
TORSDOF 0
REMARK  Name = ../refined-set-2016/3k00/3k00_pocket.pdb
REMARK  256 active torsions:
REMARK  status: ('A' for Active; 'I' for Inactive)
REMARK    1  A    between atoms: _1  and  _3
REMARK    2  A    between atoms: _3  and  _4
REMARK    3  A    between atoms: _3  and  _6
REMARK    4  A    between atoms: _6  and  _7
REMARK    5  A    between atoms: _10  and  _12
REMARK    6  A    between atoms: _12  and  _13
REMARK    7  A    between atoms: _12  and  _15
REMARK    8  A    between atoms: _15  and  _16
REMARK    9  A    between atoms: _19  and  _21
REMARK   10  A    between atoms: _21  and  _22
REMARK   11  A    between atoms: _21  and  _24
REMARK   12  A    between atoms: _24  and  _25
REMARK   13  A    between atoms: _27  and  _29
REMARK   14  A    between atoms: _29  and  _30
REMARK   15  A    between atoms: _29  and  _32
REMARK   16  A    between atoms: _32  and  _33
REMARK   17  A    between atoms: _38  and  _40
REMARK   18  A    between atoms: _40  and  _41
REMARK   19  A    between atoms: _40  and  _43
REMARK   20  A    between atoms: _43  and  _44
REMARK   21  A    between atoms: _44  and  _45
REMARK   22  A    between atoms: _48  and  _50
REMARK   23  A    between atoms: _50  and  _51
REMARK   24  A    between atoms: _54  and  _56
REMARK   25  A    between atoms: _56  and  _57
REMARK   26  A    between atoms: _56  and  _59
REMARK   27  A    between atoms: _59  and  _60
REMARK   28  A    between atoms: _60  and  _61
REMARK   29  A    between atoms: _64  and  _66
REMARK   30  A    between atoms: _66  and  _67
REMARK   31  A    between atoms: _66  and  _69
REMARK   32  A    between atoms: _69  and  _70
REMARK   33  A    between atoms: _70  and  _71
REMARK   34  A    between atoms: _71  and  _72
REMARK   35  A    between atoms: _72  and  _73
REMARK   36  A    between atoms: _77  and  _79
REMARK   37  A    between atoms: _79  and  _80
REMARK   38  A    between atoms: _79  and  _82
REMARK   39  A    between atoms: _82  and  _83
REMARK   40  A    between atoms: _88  and  _89
REMARK   41  A    between atoms: _91  and  _93
REMARK   42  A    between atoms: _93  and  _94
REMARK   43  A    between atoms: _93  and  _96
REMARK   44  A    between atoms: _96  and  _97
REMARK   45  A    between atoms: _102  and  _104
REMARK   46  A    between atoms: _104  and  _105
REMARK   47  A    between atoms: _104  and  _107
REMARK   48  A    between atoms: _111  and  _112
REMARK   49  A    between atoms: _117  and  _119
REMARK   50  A    between atoms: _119  and  _120
REMARK   51  A    between atoms: _119  and  _122
REMARK   52  A    between atoms: _122  and  _123
REMARK   53  A    between atoms: _129  and  _131
REMARK   54  A    between atoms: _131  and  _132
REMARK   55  A    between atoms: _134  and  _136
REMARK   56  A    between atoms: _136  and  _137
REMARK   57  A    between atoms: _136  and  _139
REMARK   58  A    between atoms: _139  and  _140
REMARK   59  A    between atoms: _140  and  _141
REMARK   60  A    between atoms: _144  and  _146
REMARK   61  A    between atoms: _146  and  _147
REMARK   62  A    between atoms: _150  and  _152
REMARK   63  A    between atoms: _152  and  _153
REMARK   64  A    between atoms: _152  and  _155
REMARK   65  A    between atoms: _155  and  _156
REMARK   66  A    between atoms: _161  and  _163
REMARK   67  A    between atoms: _163  and  _164
REMARK   68  A    between atoms: _167  and  _169
REMARK   69  A    between atoms: _169  and  _170
REMARK   70  A    between atoms: _169  and  _172
REMARK   71  A    between atoms: _172  and  _173
REMARK   72  A    between atoms: _173  and  _174
REMARK   73  A    between atoms: _174  and  _175
REMARK   74  A    between atoms: _175  and  _176
REMARK   75  A    between atoms: _180  and  _182
REMARK   76  A    between atoms: _182  and  _183
REMARK   77  A    between atoms: _182  and  _185
REMARK   78  A    between atoms: _185  and  _186
REMARK   79  A    between atoms: _186  and  _187
REMARK   80  A    between atoms: _187  and  _188
REMARK   81  A    between atoms: _188  and  _189
REMARK   82  A    between atoms: _193  and  _195
REMARK   83  A    between atoms: _195  and  _196
REMARK   84  A    between atoms: _195  and  _198
REMARK   85  A    between atoms: _198  and  _199
REMARK   86  A    between atoms: _199  and  _200
REMARK   87  A    between atoms: _200  and  _201
REMARK   88  A    between atoms: _210  and  _212
REMARK   89  A    between atoms: _212  and  _213
REMARK   90  A    between atoms: _212  and  _215
REMARK   91  A    between atoms: _215  and  _216
REMARK   92  A    between atoms: _216  and  _217
REMARK   93  A    between atoms: _220  and  _222
REMARK   94  A    between atoms: _222  and  _223
REMARK   95  A    between atoms: _222  and  _225
REMARK   96  A    between atoms: _228  and  _230
REMARK   97  A    between atoms: _230  and  _231
REMARK   98  A    between atoms: _234  and  _236
REMARK   99  A    between atoms: _236  and  _237
REMARK  100  A    between atoms: _236  and  _239
REMARK  101  A    between atoms: _239  and  _240
REMARK  102  A    between atoms: _250  and  _252
REMARK  103  A    between atoms: _252  and  _253
REMARK  104  A    between atoms: _252  and  _255
REMARK  105  A    between atoms: _258  and  _260
REMARK  106  A    between atoms: _260  and  _261
REMARK  107  A    between atoms: _260  and  _263
REMARK  108  A    between atoms: _263  and  _264
REMARK  109  A    between atoms: _267  and  _269
REMARK  110  A    between atoms: _269  and  _270
REMARK  111  A    between atoms: _269  and  _272
REMARK  112  A    between atoms: _272  and  _273
REMARK  113  A    between atoms: _279  and  _281
REMARK  114  A    between atoms: _281  and  _282
REMARK  115  A    between atoms: _281  and  _284
REMARK  116  A    between atoms: _284  and  _285
REMARK  117  A    between atoms: _285  and  _286
REMARK  118  A    between atoms: _291  and  _293
REMARK  119  A    between atoms: _293  and  _294
REMARK  120  A    between atoms: _293  and  _296
REMARK  121  A    between atoms: _299  and  _301
REMARK  122  A    between atoms: _301  and  _302
REMARK  123  A    between atoms: _301  and  _304
REMARK  124  A    between atoms: _304  and  _305
REMARK  125  A    between atoms: _308  and  _310
REMARK  126  A    between atoms: _310  and  _311
REMARK  127  A    between atoms: _310  and  _313
REMARK  128  A    between atoms: _313  and  _314
REMARK  129  A    between atoms: _317  and  _319
REMARK  130  A    between atoms: _319  and  _320
REMARK  131  A    between atoms: _319  and  _322
REMARK  132  A    between atoms: _322  and  _323
REMARK  133  A    between atoms: _326  and  _328
REMARK  134  A    between atoms: _328  and  _329
REMARK  135  A    between atoms: _328  and  _331
REMARK  136  A    between atoms: _331  and  _332
REMARK  137  A    between atoms: _335  and  _337
REMARK  138  A    between atoms: _337  and  _338
REMARK  139  A    between atoms: _337  and  _340
REMARK  140  A    between atoms: _340  and  _341
REMARK  141  A    between atoms: _341  and  _342
REMARK  142  A    between atoms: _342  and  _343
REMARK  143  A    between atoms: _352  and  _354
REMARK  144  A    between atoms: _354  and  _355
REMARK  145  A    between atoms: _354  and  _357
REMARK  146  A    between atoms: _357  and  _358
REMARK  147  A    between atoms: _361  and  _363
REMARK  148  A    between atoms: _363  and  _364
REMARK  149  A    between atoms: _363  and  _366
REMARK  150  A    between atoms: _366  and  _367
REMARK  151  A    between atoms: _371  and  _372
REMARK  152  A    between atoms: _377  and  _379
REMARK  153  A    between atoms: _379  and  _380
REMARK  154  A    between atoms: _379  and  _382
REMARK  155  A    between atoms: _382  and  _383
REMARK  156  A    between atoms: _388  and  _389
REMARK  157  A    between atoms: _391  and  _393
REMARK  158  A    between atoms: _393  and  _394
REMARK  159  A    between atoms: _393  and  _396
REMARK  160  A    between atoms: _396  and  _397
REMARK  161  A    between atoms: _407  and  _409
REMARK  162  A    between atoms: _409  and  _410
REMARK  163  A    between atoms: _409  and  _412
REMARK  164  A    between atoms: _412  and  _413
REMARK  165  A    between atoms: _419  and  _421
REMARK  166  A    between atoms: _421  and  _422
REMARK  167  A    between atoms: _421  and  _424
REMARK  168  A    between atoms: _424  and  _425
REMARK  169  A    between atoms: _428  and  _430
REMARK  170  A    between atoms: _430  and  _431
REMARK  171  A    between atoms: _430  and  _433
REMARK  172  A    between atoms: _433  and  _434
REMARK  173  A    between atoms: _444  and  _446
REMARK  174  A    between atoms: _446  and  _447
REMARK  175  A    between atoms: _446  and  _449
REMARK  176  A    between atoms: _449  and  _450
REMARK  177  A    between atoms: _450  and  _451
REMARK  178  A    between atoms: _453  and  _455
REMARK  179  A    between atoms: _455  and  _456
REMARK  180  A    between atoms: _455  and  _458
REMARK  181  A    between atoms: _458  and  _459
REMARK  182  A    between atoms: _464  and  _466
REMARK  183  A    between atoms: _466  and  _467
REMARK  184  A    between atoms: _470  and  _471
REMARK  185  A    between atoms: _476  and  _478
REMARK  186  A    between atoms: _478  and  _479
REMARK  187  A    between atoms: _478  and  _481
REMARK  188  A    between atoms: _481  and  _482
REMARK  189  A    between atoms: _492  and  _494
REMARK  190  A    between atoms: _494  and  _495
REMARK  191  A    between atoms: _499  and  _500
REMARK  192  A    between atoms: _505  and  _507
REMARK  193  A    between atoms: _507  and  _508
REMARK  194  A    between atoms: _507  and  _510
REMARK  195  A    between atoms: _510  and  _511
REMARK  196  A    between atoms: _511  and  _512
REMARK  197  A    between atoms: _517  and  _519
REMARK  198  A    between atoms: _519  and  _520
REMARK  199  A    between atoms: _522  and  _524
REMARK  200  A    between atoms: _524  and  _525
REMARK  201  A    between atoms: _527  and  _529
REMARK  202  A    between atoms: _529  and  _530
REMARK  203  A    between atoms: _529  and  _532
REMARK  204  A    between atoms: _532  and  _533
REMARK  205  A    between atoms: _543  and  _545
REMARK  206  A    between atoms: _545  and  _546
REMARK  207  A    between atoms: _545  and  _548
REMARK  208  A    between atoms: _548  and  _549
REMARK  209  A    between atoms: _552  and  _554
REMARK  210  A    between atoms: _554  and  _555
REMARK  211  A    between atoms: _554  and  _557
REMARK  212  A    between atoms: _557  and  _558
REMARK  213  A    between atoms: _561  and  _563
REMARK  214  A    between atoms: _563  and  _564
REMARK  215  A    between atoms: _563  and  _566
REMARK  216  A    between atoms: _566  and  _567
REMARK  217  A    between atoms: _567  and  _568
REMARK  218  A    between atoms: _568  and  _569
REMARK  219  A    between atoms: _578  and  _580
REMARK  220  A    between atoms: _580  and  _581
REMARK  221  A    between atoms: _580  and  _583
REMARK  222  A    between atoms: _583  and  _584
REMARK  223  A    between atoms: _594  and  _596
REMARK  224  A    between atoms: _596  and  _597
REMARK  225  A    between atoms: _600  and  _602
REMARK  226  A    between atoms: _602  and  _603
REMARK  227  A    between atoms: _602  and  _605
REMARK  228  A    between atoms: _605  and  _606
REMARK  229  A    between atoms: _606  and  _607
REMARK  230  A    between atoms: _610  and  _612
REMARK  231  A    between atoms: _612  and  _613
REMARK  232  A    between atoms: _615  and  _617
REMARK  233  A    between atoms: _617  and  _618
REMARK  234  A    between atoms: _617  and  _620
REMARK  235  A    between atoms: _620  and  _621
REMARK  236  A    between atoms: _626  and  _628
REMARK  237  A    between atoms: _628  and  _629
REMARK  238  A    between atoms: _632  and  _634
REMARK  239  A    between atoms: _634  and  _635
REMARK  240  A    between atoms: _634  and  _637
REMARK  241  A    between atoms: _637  and  _638
REMARK  242  A    between atoms: _641  and  _643
REMARK  243  A    between atoms: _643  and  _644
REMARK  244  A    between atoms: _643  and  _646
REMARK  245  A    between atoms: _646  and  _647
REMARK  246  A    between atoms: _653  and  _655
REMARK  247  A    between atoms: _655  and  _656
REMARK  248  A    between atoms: _655  and  _658
REMARK  249  A    between atoms: _658  and  _659
REMARK  250  A    between atoms: _659  and  _660
REMARK  251  A    between atoms: _663  and  _665
REMARK  252  A    between atoms: _665  and  _666
REMARK  253  A    between atoms: _665  and  _668
REMARK  254  A    between atoms: _668  and  _669
REMARK  255  A    between atoms: _669  and  _670
REMARK  256  A    between atoms: _670  and  _671
REMARK                            x       y       z     vdW  Elec       q    Type
REMARK                         _______ _______ _______ _____ _____    ______ ____
ROOT
ATOM      1  O   HOH     1      -8.094  -2.937  10.133  0.00  0.00    +0.000 OA
ENDROOT
TORSDOF 0
REMARK  Name = ../refined-set-2016/3k00/3k00_pocket.pdb
REMARK  256 active torsions:
REMARK  status: ('A' for Active; 'I' for Inactive)
REMARK    1  A    between atoms: _1  and  _3
REMARK    2  A    between atoms: _3  and  _4
REMARK    3  A    between atoms: _3  and  _6
REMARK    4  A    between atoms: _6  and  _7
REMARK    5  A    between atoms: _10  and  _12
REMARK    6  A    between atoms: _12  and  _13
REMARK    7  A    between atoms: _12  and  _15
REMARK    8  A    between atoms: _15  and  _16
REMARK    9  A    between atoms: _19  and  _21
REMARK   10  A    between atoms: _21  and  _22
REMARK   11  A    between atoms: _21  and  _24
REMARK   12  A    between atoms: _24  and  _25
REMARK   13  A    between atoms: _27  and  _29
REMARK   14  A    between atoms: _29  and  _30
REMARK   15  A    between atoms: _29  and  _32
REMARK   16  A    between atoms: _32  and  _33
REMARK   17  A    between atoms: _38  and  _40
REMARK   18  A    between atoms: _40  and  _41
REMARK   19  A    between atoms: _40  and  _43
REMARK   20  A    between atoms: _43  and  _44
REMARK   21  A    between atoms: _44  and  _45
REMARK   22  A    between atoms: _48  and  _50
REMARK   23  A    between atoms: _50  and  _51
REMARK   24  A    between atoms: _54  and  _56
REMARK   25  A    between atoms: _56  and  _57
REMARK   26  A    between atoms: _56  and  _59
REMARK   27  A    between atoms: _59  and  _60
REMARK   28  A    between atoms: _60  and  _61
REMARK   29  A    between atoms: _64  and  _66
REMARK   30  A    between atoms: _66  and  _67
REMARK   31  A    between atoms: _66  and  _69
REMARK   32  A    between atoms: _69  and  _70
REMARK   33  A    between atoms: _70  and  _71
REMARK   34  A    between atoms: _71  and  _72
REMARK   35  A    between atoms: _72  and  _73
REMARK   36  A    between atoms: _77  and  _79
REMARK   37  A    between atoms: _79  and  _80
REMARK   38  A    between atoms: _79  and  _82
REMARK   39  A    between atoms: _82  and  _83
REMARK   40  A    between atoms: _88  and  _89
REMARK   41  A    between atoms: _91  and  _93
REMARK   42  A    between atoms: _93  and  _94
REMARK   43  A    between atoms: _93  and  _96
REMARK   44  A    between atoms: _96  and  _97
REMARK   45  A    between atoms: _102  and  _104
REMARK   46  A    between atoms: _104  and  _105
REMARK   47  A    between atoms: _104  and  _107
REMARK   48  A    between atoms: _111  and  _112
REMARK   49  A    between atoms: _117  and  _119
REMARK   50  A    between atoms: _119  and  _120
REMARK   51  A    between atoms: _119  and  _122
REMARK   52  A    between atoms: _122  and  _123
REMARK   53  A    between atoms: _129  and  _131
REMARK   54  A    between atoms: _131  and  _132
REMARK   55  A    between atoms: _134  and  _136
REMARK   56  A    between atoms: _136  and  _137
REMARK   57  A    between atoms: _136  and  _139
REMARK   58  A    between atoms: _139  and  _140
REMARK   59  A    between atoms: _140  and  _141
REMARK   60  A    between atoms: _144  and  _146
REMARK   61  A    between atoms: _146  and  _147
REMARK   62  A    between atoms: _150  and  _152
REMARK   63  A    between atoms: _152  and  _153
REMARK   64  A    between atoms: _152  and  _155
REMARK   65  A    between atoms: _155  and  _156
REMARK   66  A    between atoms: _161  and  _163
REMARK   67  A    between atoms: _163  and  _164
REMARK   68  A    between atoms: _167  and  _169
REMARK   69  A    between atoms: _169  and  _170
REMARK   70  A    between atoms: _169  and  _172
REMARK   71  A    between atoms: _172  and  _173
REMARK   72  A    between atoms: _173  and  _174
REMARK   73  A    between atoms: _174  and  _175
REMARK   74  A    between atoms: _175  and  _176
REMARK   75  A    between atoms: _180  and  _182
REMARK   76  A    between atoms: _182  and  _183
REMARK   77  A    between atoms: _182  and  _185
REMARK   78  A    between atoms: _185  and  _186
REMARK   79  A    between atoms: _186  and  _187
REMARK   80  A    between atoms: _187  and  _188
REMARK   81  A    between atoms: _188  and  _189
REMARK   82  A    between atoms: _193  and  _195
REMARK   83  A    between atoms: _195  and  _196
REMARK   84  A    between atoms: _195  and  _198
REMARK   85  A    between atoms: _198  and  _199
REMARK   86  A    between atoms: _199  and  _200
REMARK   87  A    between atoms: _200  and  _201
REMARK   88  A    between atoms: _210  and  _212
REMARK   89  A    between atoms: _212  and  _213
REMARK   90  A    between atoms: _212  and  _215
REMARK   91  A    between atoms: _215  and  _216
REMARK   92  A    between atoms: _216  and  _217
REMARK   93  A    between atoms: _220  and  _222
REMARK   94  A    between atoms: _222  and  _223
REMARK   95  A    between atoms: _222  and  _225
REMARK   96  A    between atoms: _228  and  _230
REMARK   97  A    between atoms: _230  and  _231
REMARK   98  A    between atoms: _234  and  _236
REMARK   99  A    between atoms: _236  and  _237
REMARK  100  A    between atoms: _236  and  _239
REMARK  101  A    between atoms: _239  and  _240
REMARK  102  A    between atoms: _250  and  _252
REMARK  103  A    between atoms: _252  and  _253
REMARK  104  A    between atoms: _252  and  _255
REMARK  105  A    between atoms: _258  and  _260
REMARK  106  A    between atoms: _260  and  _261
REMARK  107  A    between atoms: _260  and  _263
REMARK  108  A    between atoms: _263  and  _264
REMARK  109  A    between atoms: _267  and  _269
REMARK  110  A    between atoms: _269  and  _270
REMARK  111  A    between atoms: _269  and  _272
REMARK  112  A    between atoms: _272  and  _273
REMARK  113  A    between atoms: _279  and  _281
REMARK  114  A    between atoms: _281  and  _282
REMARK  115  A    between atoms: _281  and  _284
REMARK  116  A    between atoms: _284  and  _285
REMARK  117  A    between atoms: _285  and  _286
REMARK  118  A    between atoms: _291  and  _293
REMARK  119  A    between atoms: _293  and  _294
REMARK  120  A    between atoms: _293  and  _296
REMARK  121  A    between atoms: _299  and  _301
REMARK  122  A    between atoms: _301  and  _302
REMARK  123  A    between atoms: _301  and  _304
REMARK  124  A    between atoms: _304  and  _305
REMARK  125  A    between atoms: _308  and  _310
REMARK  126  A    between atoms: _310  and  _311
REMARK  127  A    between atoms: _310  and  _313
REMARK  128  A    between atoms: _313  and  _314
REMARK  129  A    between atoms: _317  and  _319
REMARK  130  A    between atoms: _319  and  _320
REMARK  131  A    between atoms: _319  and  _322
REMARK  132  A    between atoms: _322  and  _323
REMARK  133  A    between atoms: _326  and  _328
REMARK  134  A    between atoms: _328  and  _329
REMARK  135  A    between atoms: _328  and  _331
REMARK  136  A    between atoms: _331  and  _332
REMARK  137  A    between atoms: _335  and  _337
REMARK  138  A    between atoms: _337  and  _338
REMARK  139  A    between atoms: _337  and  _340
REMARK  140  A    between atoms: _340  and  _341
REMARK  141  A    between atoms: _341  and  _342
REMARK  142  A    between atoms: _342  and  _343
REMARK  143  A    between atoms: _352  and  _354
REMARK  144  A    between atoms: _354  and  _355
REMARK  145  A    between atoms: _354  and  _357
REMARK  146  A    between atoms: _357  and  _358
REMARK  147  A    between atoms: _361  and  _363
REMARK  148  A    between atoms: _363  and  _364
REMARK  149  A    between atoms: _363  and  _366
REMARK  150  A    between atoms: _366  and  _367
REMARK  151  A    between atoms: _371  and  _372
REMARK  152  A    between atoms: _377  and  _379
REMARK  153  A    between atoms: _379  and  _380
REMARK  154  A    between atoms: _379  and  _382
REMARK  155  A    between atoms: _382  and  _383
REMARK  156  A    between atoms: _388  and  _389
REMARK  157  A    between atoms: _391  and  _393
REMARK  158  A    between atoms: _393  and  _394
REMARK  159  A    between atoms: _393  and  _396
REMARK  160  A    between atoms: _396  and  _397
REMARK  161  A    between atoms: _407  and  _409
REMARK  162  A    between atoms: _409  and  _410
REMARK  163  A    between atoms: _409  and  _412
REMARK  164  A    between atoms: _412  and  _413
REMARK  165  A    between atoms: _419  and  _421
REMARK  166  A    between atoms: _421  and  _422
REMARK  167  A    between atoms: _421  and  _424
REMARK  168  A    between atoms: _424  and  _425
REMARK  169  A    between atoms: _428  and  _430
REMARK  170  A    between atoms: _430  and  _431
REMARK  171  A    between atoms: _430  and  _433
REMARK  172  A    between atoms: _433  and  _434
REMARK  173  A    between atoms: _444  and  _446
REMARK  174  A    between atoms: _446  and  _447
REMARK  175  A    between atoms: _446  and  _449
REMARK  176  A    between atoms: _449  and  _450
REMARK  177  A    between atoms: _450  and  _451
REMARK  178  A    between atoms: _453  and  _455
REMARK  179  A    between atoms: _455  and  _456
REMARK  180  A    between atoms: _455  and  _458
REMARK  181  A    between atoms: _458  and  _459
REMARK  182  A    between atoms: _464  and  _466
REMARK  183  A    between atoms: _466  and  _467
REMARK  184  A    between atoms: _470  and  _471
REMARK  185  A    between atoms: _476  and  _478
REMARK  186  A    between atoms: _478  and  _479
REMARK  187  A    between atoms: _478  and  _481
REMARK  188  A    between atoms: _481  and  _482
REMARK  189  A    between atoms: _492  and  _494
REMARK  190  A    between atoms: _494  and  _495
REMARK  191  A    between atoms: _499  and  _500
REMARK  192  A    between atoms: _505  and  _507
REMARK  193  A    between atoms: _507  and  _508
REMARK  194  A    between atoms: _507  and  _510
REMARK  195  A    between atoms: _510  and  _511
REMARK  196  A    between atoms: _511  and  _512
REMARK  197  A    between atoms: _517  and  _519
REMARK  198  A    between atoms: _519  and  _520
REMARK  199  A    between atoms: _522  and  _524
REMARK  200  A    between atoms: _524  and  _525
REMARK  201  A    between atoms: _527  and  _529
REMARK  202  A    between atoms: _529  and  _530
REMARK  203  A    between atoms: _529  and  _532
REMARK  204  A    between atoms: _532  and  _533
REMARK  205  A    between atoms: _543  and  _545
REMARK  206  A    between atoms: _545  and  _546
REMARK  207  A    between atoms: _545  and  _548
REMARK  208  A    between atoms: _548  and  _549
REMARK  209  A    between atoms: _552  and  _554
REMARK  210  A    between atoms: _554  and  _555
REMARK  211  A    between atoms: _554  and  _557
REMARK  212  A    between atoms: _557  and  _558
REMARK  213  A    between atoms: _561  and  _563
REMARK  214  A    between atoms: _563  and  _564
REMARK  215  A    between atoms: _563  and  _566
REMARK  216  A    between atoms: _566  and  _567
REMARK  217  A    between atoms: _567  and  _568
REMARK  218  A    between atoms: _568  and  _569
REMARK  219  A    between atoms: _578  and  _580
REMARK  220  A    between atoms: _580  and  _581
REMARK  221  A    between atoms: _580  and  _583
REMARK  222  A    between atoms: _583  and  _584
REMARK  223  A    between atoms: _594  and  _596
REMARK  224  A    between atoms: _596  and  _597
REMARK  225  A    between atoms: _600  and  _602
REMARK  226  A    between atoms: _602  and  _603
REMARK  227  A    between atoms: _602  and  _605
REMARK  228  A    between atoms: _605  and  _606
REMARK  229  A    between atoms: _606  and  _607
REMARK  230  A    between atoms: _610  and  _612
REMARK  231  A    between atoms: _612  and  _613
REMARK  232  A    between atoms: _615  and  _617
REMARK  233  A    between atoms: _617  and  _618
REMARK  234  A    between atoms: _617  and  _620
REMARK  235  A    between atoms: _620  and  _621
REMARK  236  A    between atoms: _626  and  _628
REMARK  237  A    between atoms: _628  and  _629
REMARK  238  A    between atoms: _632  and  _634
REMARK  239  A    between atoms: _634  and  _635
REMARK  240  A    between atoms: _634  and  _637
REMARK  241  A    between atoms: _637  and  _638
REMARK  242  A    between atoms: _641  and  _643
REMARK  243  A    between atoms: _643  and  _644
REMARK  244  A    between atoms: _643  and  _646
REMARK  245  A    between atoms: _646  and  _647
REMARK  246  A    between atoms: _653  and  _655
REMARK  247  A    between atoms: _655  and  _656
REMARK  248  A    between atoms: _655  and  _658
REMARK  249  A    between atoms: _658  and  _659
REMARK  250  A    between atoms: _659  and  _660
REMARK  251  A    between atoms: _663  and  _665
REMARK  252  A    between atoms: _665  and  _666
REMARK  253  A    between atoms: _665  and  _668
REMARK  254  A    between atoms: _668  and  _669
REMARK  255  A    between atoms: _669  and  _670
REMARK  256  A    between atoms: _670  and  _671
REMARK                            x       y       z     vdW  Elec       q    Type
REMARK                         _______ _______ _______ _____ _____    ______ ____
ROOT
ATOM      1  O   HOH     1      -1.583 -17.936  24.868  0.00  0.00    +0.000 OA
ENDROOT
TORSDOF 0
REMARK  Name = ../refined-set-2016/3k00/3k00_pocket.pdb
REMARK  256 active torsions:
REMARK  status: ('A' for Active; 'I' for Inactive)
REMARK    1  A    between atoms: _1  and  _3
REMARK    2  A    between atoms: _3  and  _4
REMARK    3  A    between atoms: _3  and  _6
REMARK    4  A    between atoms: _6  and  _7
REMARK    5  A    between atoms: _10  and  _12
REMARK    6  A    between atoms: _12  and  _13
REMARK    7  A    between atoms: _12  and  _15
REMARK    8  A    between atoms: _15  and  _16
REMARK    9  A    between atoms: _19  and  _21
REMARK   10  A    between atoms: _21  and  _22
REMARK   11  A    between atoms: _21  and  _24
REMARK   12  A    between atoms: _24  and  _25
REMARK   13  A    between atoms: _27  and  _29
REMARK   14  A    between atoms: _29  and  _30
REMARK   15  A    between atoms: _29  and  _32
REMARK   16  A    between atoms: _32  and  _33
REMARK   17  A    between atoms: _38  and  _40
REMARK   18  A    between atoms: _40  and  _41
REMARK   19  A    between atoms: _40  and  _43
REMARK   20  A    between atoms: _43  and  _44
REMARK   21  A    between atoms: _44  and  _45
REMARK   22  A    between atoms: _48  and  _50
REMARK   23  A    between atoms: _50  and  _51
REMARK   24  A    between atoms: _54  and  _56
REMARK   25  A    between atoms: _56  and  _57
REMARK   26  A    between atoms: _56  and  _59
REMARK   27  A    between atoms: _59  and  _60
REMARK   28  A    between atoms: _60  and  _61
REMARK   29  A    between atoms: _64  and  _66
REMARK   30  A    between atoms: _66  and  _67
REMARK   31  A    between atoms: _66  and  _69
REMARK   32  A    between atoms: _69  and  _70
REMARK   33  A    between atoms: _70  and  _71
REMARK   34  A    between atoms: _71  and  _72
REMARK   35  A    between atoms: _72  and  _73
REMARK   36  A    between atoms: _77  and  _79
REMARK   37  A    between atoms: _79  and  _80
REMARK   38  A    between atoms: _79  and  _82
REMARK   39  A    between atoms: _82  and  _83
REMARK   40  A    between atoms: _88  and  _89
REMARK   41  A    between atoms: _91  and  _93
REMARK   42  A    between atoms: _93  and  _94
REMARK   43  A    between atoms: _93  and  _96
REMARK   44  A    between atoms: _96  and  _97
REMARK   45  A    between atoms: _102  and  _104
REMARK   46  A    between atoms: _104  and  _105
REMARK   47  A    between atoms: _104  and  _107
REMARK   48  A    between atoms: _111  and  _112
REMARK   49  A    between atoms: _117  and  _119
REMARK   50  A    between atoms: _119  and  _120
REMARK   51  A    between atoms: _119  and  _122
REMARK   52  A    between atoms: _122  and  _123
REMARK   53  A    between atoms: _129  and  _131
REMARK   54  A    between atoms: _131  and  _132
REMARK   55  A    between atoms: _134  and  _136
REMARK   56  A    between atoms: _136  and  _137
REMARK   57  A    between atoms: _136  and  _139
REMARK   58  A    between atoms: _139  and  _140
REMARK   59  A    between atoms: _140  and  _141
REMARK   60  A    between atoms: _144  and  _146
REMARK   61  A    between atoms: _146  and  _147
REMARK   62  A    between atoms: _150  and  _152
REMARK   63  A    between atoms: _152  and  _153
REMARK   64  A    between atoms: _152  and  _155
REMARK   65  A    between atoms: _155  and  _156
REMARK   66  A    between atoms: _161  and  _163
REMARK   67  A    between atoms: _163  and  _164
REMARK   68  A    between atoms: _167  and  _169
REMARK   69  A    between atoms: _169  and  _170
REMARK   70  A    between atoms: _169  and  _172
REMARK   71  A    between atoms: _172  and  _173
REMARK   72  A    between atoms: _173  and  _174
REMARK   73  A    between atoms: _174  and  _175
REMARK   74  A    between atoms: _175  and  _176
REMARK   75  A    between atoms: _180  and  _182
REMARK   76  A    between atoms: _182  and  _183
REMARK   77  A    between atoms: _182  and  _185
REMARK   78  A    between atoms: _185  and  _186
REMARK   79  A    between atoms: _186  and  _187
REMARK   80  A    between atoms: _187  and  _188
REMARK   81  A    between atoms: _188  and  _189
REMARK   82  A    between atoms: _193  and  _195
REMARK   83  A    between atoms: _195  and  _196
REMARK   84  A    between atoms: _195  and  _198
REMARK   85  A    between atoms: _198  and  _199
REMARK   86  A    between atoms: _199  and  _200
REMARK   87  A    between atoms: _200  and  _201
REMARK   88  A    between atoms: _210  and  _212
REMARK   89  A    between atoms: _212  and  _213
REMARK   90  A    between atoms: _212  and  _215
REMARK   91  A    between atoms: _215  and  _216
REMARK   92  A    between atoms: _216  and  _217
REMARK   93  A    between atoms: _220  and  _222
REMARK   94  A    between atoms: _222  and  _223
REMARK   95  A    between atoms: _222  and  _225
REMARK   96  A    between atoms: _228  and  _230
REMARK   97  A    between atoms: _230  and  _231
REMARK   98  A    between atoms: _234  and  _236
REMARK   99  A    between atoms: _236  and  _237
REMARK  100  A    between atoms: _236  and  _239
REMARK  101  A    between atoms: _239  and  _240
REMARK  102  A    between atoms: _250  and  _252
REMARK  103  A    between atoms: _252  and  _253
REMARK  104  A    between atoms: _252  and  _255
REMARK  105  A    between atoms: _258  and  _260
REMARK  106  A    between atoms: _260  and  _261
REMARK  107  A    between atoms: _260  and  _263
REMARK  108  A    between atoms: _263  and  _264
REMARK  109  A    between atoms: _267  and  _269
REMARK  110  A    between atoms: _269  and  _270
REMARK  111  A    between atoms: _269  and  _272
REMARK  112  A    between atoms: _272  and  _273
REMARK  113  A    between atoms: _279  and  _281
REMARK  114  A    between atoms: _281  and  _282
REMARK  115  A    between atoms: _281  and  _284
REMARK  116  A    between atoms: _284  and  _285
REMARK  117  A    between atoms: _285  and  _286
REMARK  118  A    between atoms: _291  and  _293
REMARK  119  A    between atoms: _293  and  _294
REMARK  120  A    between atoms: _293  and  _296
REMARK  121  A    between atoms: _299  and  _301
REMARK  122  A    between atoms: _301  and  _302
REMARK  123  A    between atoms: _301  and  _304
REMARK  124  A    between atoms: _304  and  _305
REMARK  125  A    between atoms: _308  and  _310
REMARK  126  A    between atoms: _310  and  _311
REMARK  127  A    between atoms: _310  and  _313
REMARK  128  A    between atoms: _313  and  _314
REMARK  129  A    between atoms: _317  and  _319
REMARK  130  A    between atoms: _319  and  _320
REMARK  131  A    between atoms: _319  and  _322
REMARK  132  A    between atoms: _322  and  _323
REMARK  133  A    between atoms: _326  and  _328
REMARK  134  A    between atoms: _328  and  _329
REMARK  135  A    between atoms: _328  and  _331
REMARK  136  A    between atoms: _331  and  _332
REMARK  137  A    between atoms: _335  and  _337
REMARK  138  A    between atoms: _337  and  _338
REMARK  139  A    between atoms: _337  and  _340
REMARK  140  A    between atoms: _340  and  _341
REMARK  141  A    between atoms: _341  and  _342
REMARK  142  A    between atoms: _342  and  _343
REMARK  143  A    between atoms: _352  and  _354
REMARK  144  A    between atoms: _354  and  _355
REMARK  145  A    between atoms: _354  and  _357
REMARK  146  A    between atoms: _357  and  _358
REMARK  147  A    between atoms: _361  and  _363
REMARK  148  A    between atoms: _363  and  _364
REMARK  149  A    between atoms: _363  and  _366
REMARK  150  A    between atoms: _366  and  _367
REMARK  151  A    between atoms: _371  and  _372
REMARK  152  A    between atoms: _377  and  _379
REMARK  153  A    between atoms: _379  and  _380
REMARK  154  A    between atoms: _379  and  _382
REMARK  155  A    between atoms: _382  and  _383
REMARK  156  A    between atoms: _388  and  _389
REMARK  157  A    between atoms: _391  and  _393
REMARK  158  A    between atoms: _393  and  _394
REMARK  159  A    between atoms: _393  and  _396
REMARK  160  A    between atoms: _396  and  _397
REMARK  161  A    between atoms: _407  and  _409
REMARK  162  A    between atoms: _409  and  _410
REMARK  163  A    between atoms: _409  and  _412
REMARK  164  A    between atoms: _412  and  _413
REMARK  165  A    between atoms: _419  and  _421
REMARK  166  A    between atoms: _421  and  _422
REMARK  167  A    between atoms: _421  and  _424
REMARK  168  A    between atoms: _424  and  _425
REMARK  169  A    between atoms: _428  and  _430
REMARK  170  A    between atoms: _430  and  _431
REMARK  171  A    between atoms: _430  and  _433
REMARK  172  A    between atoms: _433  and  _434
REMARK  173  A    between atoms: _444  and  _446
REMARK  174  A    between atoms: _446  and  _447
REMARK  175  A    between atoms: _446  and  _449
REMARK  176  A    between atoms: _449  and  _450
REMARK  177  A    between atoms: _450  and  _451
REMARK  178  A    between atoms: _453  and  _455
REMARK  179  A    between atoms: _455  and  _456
REMARK  180  A    between atoms: _455  and  _458
REMARK  181  A    between atoms: _458  and  _459
REMARK  182  A    between atoms: _464  and  _466
REMARK  183  A    between atoms: _466  and  _467
REMARK  184  A    between atoms: _470  and  _471
REMARK  185  A    between atoms: _476  and  _478
REMARK  186  A    between atoms: _478  and  _479
REMARK  187  A    between atoms: _478  and  _481
REMARK  188  A    between atoms: _481  and  _482
REMARK  189  A    between atoms: _492  and  _494
REMARK  190  A    between atoms: _494  and  _495
REMARK  191  A    between atoms: _499  and  _500
REMARK  192  A    between atoms: _505  and  _507
REMARK  193  A    between atoms: _507  and  _508
REMARK  194  A    between atoms: _507  and  _510
REMARK  195  A    between atoms: _510  and  _511
REMARK  196  A    between atoms: _511  and  _512
REMARK  197  A    between atoms: _517  and  _519
REMARK  198  A    between atoms: _519  and  _520
REMARK  199  A    between atoms: _522  and  _524
REMARK  200  A    between atoms: _524  and  _525
REMARK  201  A    between atoms: _527  and  _529
REMARK  202  A    between atoms: _529  and  _530
REMARK  203  A    between atoms: _529  and  _532
REMARK  204  A    between atoms: _532  and  _533
REMARK  205  A    between atoms: _543  and  _545
REMARK  206  A    between atoms: _545  and  _546
REMARK  207  A    between atoms: _545  and  _548
REMARK  208  A    between atoms: _548  and  _549
REMARK  209  A    between atoms: _552  and  _554
REMARK  210  A    between atoms: _554  and  _555
REMARK  211  A    between atoms: _554  and  _557
REMARK  212  A    between atoms: _557  and  _558
REMARK  213  A    between atoms: _561  and  _563
REMARK  214  A    between atoms: _563  and  _564
REMARK  215  A    between atoms: _563  and  _566
REMARK  216  A    between atoms: _566  and  _567
REMARK  217  A    between atoms: _567  and  _568
REMARK  218  A    between atoms: _568  and  _569
REMARK  219  A    between atoms: _578  and  _580
REMARK  220  A    between atoms: _580  and  _581
REMARK  221  A    between atoms: _580  and  _583
REMARK  222  A    between atoms: _583  and  _584
REMARK  223  A    between atoms: _594  and  _596
REMARK  224  A    between atoms: _596  and  _597
REMARK  225  A    between atoms: _600  and  _602
REMARK  226  A    between atoms: _602  and  _603
REMARK  227  A    between atoms: _602  and  _605
REMARK  228  A    between atoms: _605  and  _606
REMARK  229  A    between atoms: _606  and  _607
REMARK  230  A    between atoms: _610  and  _612
REMARK  231  A    between atoms: _612  and  _613
REMARK  232  A    between atoms: _615  and  _617
REMARK  233  A    between atoms: _617  and  _618
REMARK  234  A    between atoms: _617  and  _620
REMARK  235  A    between atoms: _620  and  _621
REMARK  236  A    between atoms: _626  and  _628
REMARK  237  A    between atoms: _628  and  _629
REMARK  238  A    between atoms: _632  and  _634
REMARK  239  A    between atoms: _634  and  _635
REMARK  240  A    between atoms: _634  and  _637
REMARK  241  A    between atoms: _637  and  _638
REMARK  242  A    between atoms: _641  and  _643
REMARK  243  A    between atoms: _643  and  _644
REMARK  244  A    between atoms: _643  and  _646
REMARK  245  A    between atoms: _646  and  _647
REMARK  246  A    between atoms: _653  and  _655
REMARK  247  A    between atoms: _655  and  _656
REMARK  248  A    between atoms: _655  and  _658
REMARK  249  A    between atoms: _658  and  _659
REMARK  250  A    between atoms: _659  and  _660
REMARK  251  A    between atoms: _663  and  _665
REMARK  252  A    between atoms: _665  and  _666
REMARK  253  A    between atoms: _665  and  _668
REMARK  254  A    between atoms: _668  and  _669
REMARK  255  A    between atoms: _669  and  _670
REMARK  256  A    between atoms: _670  and  _671
REMARK                            x       y       z     vdW  Elec       q    Type
REMARK                         _______ _______ _______ _____ _____    ______ ____
ROOT
ATOM      1  O   HOH     1      -5.192  -4.481  10.151  0.00  0.00    +0.000 OA
ENDROOT
TORSDOF 0
REMARK  Name = ../refined-set-2016/3k00/3k00_pocket.pdb
REMARK  256 active torsions:
REMARK  status: ('A' for Active; 'I' for Inactive)
REMARK    1  A    between atoms: _1  and  _3
REMARK    2  A    between atoms: _3  and  _4
REMARK    3  A    between atoms: _3  and  _6
REMARK    4  A    between atoms: _6  and  _7
REMARK    5  A    between atoms: _10  and  _12
REMARK    6  A    between atoms: _12  and  _13
REMARK    7  A    between atoms: _12  and  _15
REMARK    8  A    between atoms: _15  and  _16
REMARK    9  A    between atoms: _19  and  _21
REMARK   10  A    between atoms: _21  and  _22
REMARK   11  A    between atoms: _21  and  _24
REMARK   12  A    between atoms: _24  and  _25
REMARK   13  A    between atoms: _27  and  _29
REMARK   14  A    between atoms: _29  and  _30
REMARK   15  A    between atoms: _29  and  _32
REMARK   16  A    between atoms: _32  and  _33
REMARK   17  A    between atoms: _38  and  _40
REMARK   18  A    between atoms: _40  and  _41
REMARK   19  A    between atoms: _40  and  _43
REMARK   20  A    between atoms: _43  and  _44
REMARK   21  A    between atoms: _44  and  _45
REMARK   22  A    between atoms: _48  and  _50
REMARK   23  A    between atoms: _50  and  _51
REMARK   24  A    between atoms: _54  and  _56
REMARK   25  A    between atoms: _56  and  _57
REMARK   26  A    between atoms: _56  and  _59
REMARK   27  A    between atoms: _59  and  _60
REMARK   28  A    between atoms: _60  and  _61
REMARK   29  A    between atoms: _64  and  _66
REMARK   30  A    between atoms: _66  and  _67
REMARK   31  A    between atoms: _66  and  _69
REMARK   32  A    between atoms: _69  and  _70
REMARK   33  A    between atoms: _70  and  _71
REMARK   34  A    between atoms: _71  and  _72
REMARK   35  A    between atoms: _72  and  _73
REMARK   36  A    between atoms: _77  and  _79
REMARK   37  A    between atoms: _79  and  _80
REMARK   38  A    between atoms: _79  and  _82
REMARK   39  A    between atoms: _82  and  _83
REMARK   40  A    between atoms: _88  and  _89
REMARK   41  A    between atoms: _91  and  _93
REMARK   42  A    between atoms: _93  and  _94
REMARK   43  A    between atoms: _93  and  _96
REMARK   44  A    between atoms: _96  and  _97
REMARK   45  A    between atoms: _102  and  _104
REMARK   46  A    between atoms: _104  and  _105
REMARK   47  A    between atoms: _104  and  _107
REMARK   48  A    between atoms: _111  and  _112
REMARK   49  A    between atoms: _117  and  _119
REMARK   50  A    between atoms: _119  and  _120
REMARK   51  A    between atoms: _119  and  _122
REMARK   52  A    between atoms: _122  and  _123
REMARK   53  A    between atoms: _129  and  _131
REMARK   54  A    between atoms: _131  and  _132
REMARK   55  A    between atoms: _134  and  _136
REMARK   56  A    between atoms: _136  and  _137
REMARK   57  A    between atoms: _136  and  _139
REMARK   58  A    between atoms: _139  and  _140
REMARK   59  A    between atoms: _140  and  _141
REMARK   60  A    between atoms: _144  and  _146
REMARK   61  A    between atoms: _146  and  _147
REMARK   62  A    between atoms: _150  and  _152
REMARK   63  A    between atoms: _152  and  _153
REMARK   64  A    between atoms: _152  and  _155
REMARK   65  A    between atoms: _155  and  _156
REMARK   66  A    between atoms: _161  and  _163
REMARK   67  A    between atoms: _163  and  _164
REMARK   68  A    between atoms: _167  and  _169
REMARK   69  A    between atoms: _169  and  _170
REMARK   70  A    between atoms: _169  and  _172
REMARK   71  A    between atoms: _172  and  _173
REMARK   72  A    between atoms: _173  and  _174
REMARK   73  A    between atoms: _174  and  _175
REMARK   74  A    between atoms: _175  and  _176
REMARK   75  A    between atoms: _180  and  _182
REMARK   76  A    between atoms: _182  and  _183
REMARK   77  A    between atoms: _182  and  _185
REMARK   78  A    between atoms: _185  and  _186
REMARK   79  A    between atoms: _186  and  _187
REMARK   80  A    between atoms: _187  and  _188
REMARK   81  A    between atoms: _188  and  _189
REMARK   82  A    between atoms: _193  and  _195
REMARK   83  A    between atoms: _195  and  _196
REMARK   84  A    between atoms: _195  and  _198
REMARK   85  A    between atoms: _198  and  _199
REMARK   86  A    between atoms: _199  and  _200
REMARK   87  A    between atoms: _200  and  _201
REMARK   88  A    between atoms: _210  and  _212
REMARK   89  A    between atoms: _212  and  _213
REMARK   90  A    between atoms: _212  and  _215
REMARK   91  A    between atoms: _215  and  _216
REMARK   92  A    between atoms: _216  and  _217
REMARK   93  A    between atoms: _220  and  _222
REMARK   94  A    between atoms: _222  and  _223
REMARK   95  A    between atoms: _222  and  _225
REMARK   96  A    between atoms: _228  and  _230
REMARK   97  A    between atoms: _230  and  _231
REMARK   98  A    between atoms: _234  and  _236
REMARK   99  A    between atoms: _236  and  _237
REMARK  100  A    between atoms: _236  and  _239
REMARK  101  A    between atoms: _239  and  _240
REMARK  102  A    between atoms: _250  and  _252
REMARK  103  A    between atoms: _252  and  _253
REMARK  104  A    between atoms: _252  and  _255
REMARK  105  A    between atoms: _258  and  _260
REMARK  106  A    between atoms: _260  and  _261
REMARK  107  A    between atoms: _260  and  _263
REMARK  108  A    between atoms: _263  and  _264
REMARK  109  A    between atoms: _267  and  _269
REMARK  110  A    between atoms: _269  and  _270
REMARK  111  A    between atoms: _269  and  _272
REMARK  112  A    between atoms: _272  and  _273
REMARK  113  A    between atoms: _279  and  _281
REMARK  114  A    between atoms: _281  and  _282
REMARK  115  A    between atoms: _281  and  _284
REMARK  116  A    between atoms: _284  and  _285
REMARK  117  A    between atoms: _285  and  _286
REMARK  118  A    between atoms: _291  and  _293
REMARK  119  A    between atoms: _293  and  _294
REMARK  120  A    between atoms: _293  and  _296
REMARK  121  A    between atoms: _299  and  _301
REMARK  122  A    between atoms: _301  and  _302
REMARK  123  A    between atoms: _301  and  _304
REMARK  124  A    between atoms: _304  and  _305
REMARK  125  A    between atoms: _308  and  _310
REMARK  126  A    between atoms: _310  and  _311
REMARK  127  A    between atoms: _310  and  _313
REMARK  128  A    between atoms: _313  and  _314
REMARK  129  A    between atoms: _317  and  _319
REMARK  130  A    between atoms: _319  and  _320
REMARK  131  A    between atoms: _319  and  _322
REMARK  132  A    between atoms: _322  and  _323
REMARK  133  A    between atoms: _326  and  _328
REMARK  134  A    between atoms: _328  and  _329
REMARK  135  A    between atoms: _328  and  _331
REMARK  136  A    between atoms: _331  and  _332
REMARK  137  A    between atoms: _335  and  _337
REMARK  138  A    between atoms: _337  and  _338
REMARK  139  A    between atoms: _337  and  _340
REMARK  140  A    between atoms: _340  and  _341
REMARK  141  A    between atoms: _341  and  _342
REMARK  142  A    between atoms: _342  and  _343
REMARK  143  A    between atoms: _352  and  _354
REMARK  144  A    between atoms: _354  and  _355
REMARK  145  A    between atoms: _354  and  _357
REMARK  146  A    between atoms: _357  and  _358
REMARK  147  A    between atoms: _361  and  _363
REMARK  148  A    between atoms: _363  and  _364
REMARK  149  A    between atoms: _363  and  _366
REMARK  150  A    between atoms: _366  and  _367
REMARK  151  A    between atoms: _371  and  _372
REMARK  152  A    between atoms: _377  and  _379
REMARK  153  A    between atoms: _379  and  _380
REMARK  154  A    between atoms: _379  and  _382
REMARK  155  A    between atoms: _382  and  _383
REMARK  156  A    between atoms: _388  and  _389
REMARK  157  A    between atoms: _391  and  _393
REMARK  158  A    between atoms: _393  and  _394
REMARK  159  A    between atoms: _393  and  _396
REMARK  160  A    between atoms: _396  and  _397
REMARK  161  A    between atoms: _407  and  _409
REMARK  162  A    between atoms: _409  and  _410
REMARK  163  A    between atoms: _409  and  _412
REMARK  164  A    between atoms: _412  and  _413
REMARK  165  A    between atoms: _419  and  _421
REMARK  166  A    between atoms: _421  and  _422
REMARK  167  A    between atoms: _421  and  _424
REMARK  168  A    between atoms: _424  and  _425
REMARK  169  A    between atoms: _428  and  _430
REMARK  170  A    between atoms: _430  and  _431
REMARK  171  A    between atoms: _430  and  _433
REMARK  172  A    between atoms: _433  and  _434
REMARK  173  A    between atoms: _444  and  _446
REMARK  174  A    between atoms: _446  and  _447
REMARK  175  A    between atoms: _446  and  _449
REMARK  176  A    between atoms: _449  and  _450
REMARK  177  A    between atoms: _450  and  _451
REMARK  178  A    between atoms: _453  and  _455
REMARK  179  A    between atoms: _455  and  _456
REMARK  180  A    between atoms: _455  and  _458
REMARK  181  A    between atoms: _458  and  _459
REMARK  182  A    between atoms: _464  and  _466
REMARK  183  A    between atoms: _466  and  _467
REMARK  184  A    between atoms: _470  and  _471
REMARK  185  A    between atoms: _476  and  _478
REMARK  186  A    between atoms: _478  and  _479
REMARK  187  A    between atoms: _478  and  _481
REMARK  188  A    between atoms: _481  and  _482
REMARK  189  A    between atoms: _492  and  _494
REMARK  190  A    between atoms: _494  and  _495
REMARK  191  A    between atoms: _499  and  _500
REMARK  192  A    between atoms: _505  and  _507
REMARK  193  A    between atoms: _507  and  _508
REMARK  194  A    between atoms: _507  and  _510
REMARK  195  A    between atoms: _510  and  _511
REMARK  196  A    between atoms: _511  and  _512
REMARK  197  A    between atoms: _517  and  _519
REMARK  198  A    between atoms: _519  and  _520
REMARK  199  A    between atoms: _522  and  _524
REMARK  200  A    between atoms: _524  and  _525
REMARK  201  A    between atoms: _527  and  _529
REMARK  202  A    between atoms: _529  and  _530
REMARK  203  A    between atoms: _529  and  _532
REMARK  204  A    between atoms: _532  and  _533
REMARK  205  A    between atoms: _543  and  _545
REMARK  206  A    between atoms: _545  and  _546
REMARK  207  A    between atoms: _545  and  _548
REMARK  208  A    between atoms: _548  and  _549
REMARK  209  A    between atoms: _552  and  _554
REMARK  210  A    between atoms: _554  and  _555
REMARK  211  A    between atoms: _554  and  _557
REMARK  212  A    between atoms: _557  and  _558
REMARK  213  A    between atoms: _561  and  _563
REMARK  214  A    between atoms: _563  and  _564
REMARK  215  A    between atoms: _563  and  _566
REMARK  216  A    between atoms: _566  and  _567
REMARK  217  A    between atoms: _567  and  _568
REMARK  218  A    between atoms: _568  and  _569
REMARK  219  A    between atoms: _578  and  _580
REMARK  220  A    between atoms: _580  and  _581
REMARK  221  A    between atoms: _580  and  _583
REMARK  222  A    between atoms: _583  and  _584
REMARK  223  A    between atoms: _594  and  _596
REMARK  224  A    between atoms: _596  and  _597
REMARK  225  A    between atoms: _600  and  _602
REMARK  226  A    between atoms: _602  and  _603
REMARK  227  A    between atoms: _602  and  _605
REMARK  228  A    between atoms: _605  and  _606
REMARK  229  A    between atoms: _606  and  _607
REMARK  230  A    between atoms: _610  and  _612
REMARK  231  A    between atoms: _612  and  _613
REMARK  232  A    between atoms: _615  and  _617
REMARK  233  A    between atoms: _617  and  _618
REMARK  234  A    between atoms: _617  and  _620
REMARK  235  A    between atoms: _620  and  _621
REMARK  236  A    between atoms: _626  and  _628
REMARK  237  A    between atoms: _628  and  _629
REMARK  238  A    between atoms: _632  and  _634
REMARK  239  A    between atoms: _634  and  _635
REMARK  240  A    between atoms: _634  and  _637
REMARK  241  A    between atoms: _637  and  _638
REMARK  242  A    between atoms: _641  and  _643
REMARK  243  A    between atoms: _643  and  _644
REMARK  244  A    between atoms: _643  and  _646
REMARK  245  A    between atoms: _646  and  _647
REMARK  246  A    between atoms: _653  and  _655
REMARK  247  A    between atoms: _655  and  _656
REMARK  248  A    between atoms: _655  and  _658
REMARK  249  A    between atoms: _658  and  _659
REMARK  250  A    between atoms: _659  and  _660
REMARK  251  A    between atoms: _663  and  _665
REMARK  252  A    between atoms: _665  and  _666
REMARK  253  A    between atoms: _665  and  _668
REMARK  254  A    between atoms: _668  and  _669
REMARK  255  A    between atoms: _669  and  _670
REMARK  256  A    between atoms: _670  and  _671
REMARK                            x       y       z     vdW  Elec       q    Type
REMARK                         _______ _______ _______ _____ _____    ______ ____
ROOT
ATOM      1  O   HOH     1      -0.279   0.494  17.119  0.00  0.00    +0.000 OA
ENDROOT
TORSDOF 0
REMARK  Name = ../refined-set-2016/3k00/3k00_pocket.pdb
REMARK  256 active torsions:
REMARK  status: ('A' for Active; 'I' for Inactive)
REMARK    1  A    between atoms: _1  and  _3
REMARK    2  A    between atoms: _3  and  _4
REMARK    3  A    between atoms: _3  and  _6
REMARK    4  A    between atoms: _6  and  _7
REMARK    5  A    between atoms: _10  and  _12
REMARK    6  A    between atoms: _12  and  _13
REMARK    7  A    between atoms: _12  and  _15
REMARK    8  A    between atoms: _15  and  _16
REMARK    9  A    between atoms: _19  and  _21
REMARK   10  A    between atoms: _21  and  _22
REMARK   11  A    between atoms: _21  and  _24
REMARK   12  A    between atoms: _24  and  _25
REMARK   13  A    between atoms: _27  and  _29
REMARK   14  A    between atoms: _29  and  _30
REMARK   15  A    between atoms: _29  and  _32
REMARK   16  A    between atoms: _32  and  _33
REMARK   17  A    between atoms: _38  and  _40
REMARK   18  A    between atoms: _40  and  _41
REMARK   19  A    between atoms: _40  and  _43
REMARK   20  A    between atoms: _43  and  _44
REMARK   21  A    between atoms: _44  and  _45
REMARK   22  A    between atoms: _48  and  _50
REMARK   23  A    between atoms: _50  and  _51
REMARK   24  A    between atoms: _54  and  _56
REMARK   25  A    between atoms: _56  and  _57
REMARK   26  A    between atoms: _56  and  _59
REMARK   27  A    between atoms: _59  and  _60
REMARK   28  A    between atoms: _60  and  _61
REMARK   29  A    between atoms: _64  and  _66
REMARK   30  A    between atoms: _66  and  _67
REMARK   31  A    between atoms: _66  and  _69
REMARK   32  A    between atoms: _69  and  _70
REMARK   33  A    between atoms: _70  and  _71
REMARK   34  A    between atoms: _71  and  _72
REMARK   35  A    between atoms: _72  and  _73
REMARK   36  A    between atoms: _77  and  _79
REMARK   37  A    between atoms: _79  and  _80
REMARK   38  A    between atoms: _79  and  _82
REMARK   39  A    between atoms: _82  and  _83
REMARK   40  A    between atoms: _88  and  _89
REMARK   41  A    between atoms: _91  and  _93
REMARK   42  A    between atoms: _93  and  _94
REMARK   43  A    between atoms: _93  and  _96
REMARK   44  A    between atoms: _96  and  _97
REMARK   45  A    between atoms: _102  and  _104
REMARK   46  A    between atoms: _104  and  _105
REMARK   47  A    between atoms: _104  and  _107
REMARK   48  A    between atoms: _111  and  _112
REMARK   49  A    between atoms: _117  and  _119
REMARK   50  A    between atoms: _119  and  _120
REMARK   51  A    between atoms: _119  and  _122
REMARK   52  A    between atoms: _122  and  _123
REMARK   53  A    between atoms: _129  and  _131
REMARK   54  A    between atoms: _131  and  _132
REMARK   55  A    between atoms: _134  and  _136
REMARK   56  A    between atoms: _136  and  _137
REMARK   57  A    between atoms: _136  and  _139
REMARK   58  A    between atoms: _139  and  _140
REMARK   59  A    between atoms: _140  and  _141
REMARK   60  A    between atoms: _144  and  _146
REMARK   61  A    between atoms: _146  and  _147
REMARK   62  A    between atoms: _150  and  _152
REMARK   63  A    between atoms: _152  and  _153
REMARK   64  A    between atoms: _152  and  _155
REMARK   65  A    between atoms: _155  and  _156
REMARK   66  A    between atoms: _161  and  _163
REMARK   67  A    between atoms: _163  and  _164
REMARK   68  A    between atoms: _167  and  _169
REMARK   69  A    between atoms: _169  and  _170
REMARK   70  A    between atoms: _169  and  _172
REMARK   71  A    between atoms: _172  and  _173
REMARK   72  A    between atoms: _173  and  _174
REMARK   73  A    between atoms: _174  and  _175
REMARK   74  A    between atoms: _175  and  _176
REMARK   75  A    between atoms: _180  and  _182
REMARK   76  A    between atoms: _182  and  _183
REMARK   77  A    between atoms: _182  and  _185
REMARK   78  A    between atoms: _185  and  _186
REMARK   79  A    between atoms: _186  and  _187
REMARK   80  A    between atoms: _187  and  _188
REMARK   81  A    between atoms: _188  and  _189
REMARK   82  A    between atoms: _193  and  _195
REMARK   83  A    between atoms: _195  and  _196
REMARK   84  A    between atoms: _195  and  _198
REMARK   85  A    between atoms: _198  and  _199
REMARK   86  A    between atoms: _199  and  _200
REMARK   87  A    between atoms: _200  and  _201
REMARK   88  A    between atoms: _210  and  _212
REMARK   89  A    between atoms: _212  and  _213
REMARK   90  A    between atoms: _212  and  _215
REMARK   91  A    between atoms: _215  and  _216
REMARK   92  A    between atoms: _216  and  _217
REMARK   93  A    between atoms: _220  and  _222
REMARK   94  A    between atoms: _222  and  _223
REMARK   95  A    between atoms: _222  and  _225
REMARK   96  A    between atoms: _228  and  _230
REMARK   97  A    between atoms: _230  and  _231
REMARK   98  A    between atoms: _234  and  _236
REMARK   99  A    between atoms: _236  and  _237
REMARK  100  A    between atoms: _236  and  _239
REMARK  101  A    between atoms: _239  and  _240
REMARK  102  A    between atoms: _250  and  _252
REMARK  103  A    between atoms: _252  and  _253
REMARK  104  A    between atoms: _252  and  _255
REMARK  105  A    between atoms: _258  and  _260
REMARK  106  A    between atoms: _260  and  _261
REMARK  107  A    between atoms: _260  and  _263
REMARK  108  A    between atoms: _263  and  _264
REMARK  109  A    between atoms: _267  and  _269
REMARK  110  A    between atoms: _269  and  _270
REMARK  111  A    between atoms: _269  and  _272
REMARK  112  A    between atoms: _272  and  _273
REMARK  113  A    between atoms: _279  and  _281
REMARK  114  A    between atoms: _281  and  _282
REMARK  115  A    between atoms: _281  and  _284
REMARK  116  A    between atoms: _284  and  _285
REMARK  117  A    between atoms: _285  and  _286
REMARK  118  A    between atoms: _291  and  _293
REMARK  119  A    between atoms: _293  and  _294
REMARK  120  A    between atoms: _293  and  _296
REMARK  121  A    between atoms: _299  and  _301
REMARK  122  A    between atoms: _301  and  _302
REMARK  123  A    between atoms: _301  and  _304
REMARK  124  A    between atoms: _304  and  _305
REMARK  125  A    between atoms: _308  and  _310
REMARK  126  A    between atoms: _310  and  _311
REMARK  127  A    between atoms: _310  and  _313
REMARK  128  A    between atoms: _313  and  _314
REMARK  129  A    between atoms: _317  and  _319
REMARK  130  A    between atoms: _319  and  _320
REMARK  131  A    between atoms: _319  and  _322
REMARK  132  A    between atoms: _322  and  _323
REMARK  133  A    between atoms: _326  and  _328
REMARK  134  A    between atoms: _328  and  _329
REMARK  135  A    between atoms: _328  and  _331
REMARK  136  A    between atoms: _331  and  _332
REMARK  137  A    between atoms: _335  and  _337
REMARK  138  A    between atoms: _337  and  _338
REMARK  139  A    between atoms: _337  and  _340
REMARK  140  A    between atoms: _340  and  _341
REMARK  141  A    between atoms: _341  and  _342
REMARK  142  A    between atoms: _342  and  _343
REMARK  143  A    between atoms: _352  and  _354
REMARK  144  A    between atoms: _354  and  _355
REMARK  145  A    between atoms: _354  and  _357
REMARK  146  A    between atoms: _357  and  _358
REMARK  147  A    between atoms: _361  and  _363
REMARK  148  A    between atoms: _363  and  _364
REMARK  149  A    between atoms: _363  and  _366
REMARK  150  A    between atoms: _366  and  _367
REMARK  151  A    between atoms: _371  and  _372
REMARK  152  A    between atoms: _377  and  _379
REMARK  153  A    between atoms: _379  and  _380
REMARK  154  A    between atoms: _379  and  _382
REMARK  155  A    between atoms: _382  and  _383
REMARK  156  A    between atoms: _388  and  _389
REMARK  157  A    between atoms: _391  and  _393
REMARK  158  A    between atoms: _393  and  _394
REMARK  159  A    between atoms: _393  and  _396
REMARK  160  A    between atoms: _396  and  _397
REMARK  161  A    between atoms: _407  and  _409
REMARK  162  A    between atoms: _409  and  _410
REMARK  163  A    between atoms: _409  and  _412
REMARK  164  A    between atoms: _412  and  _413
REMARK  165  A    between atoms: _419  and  _421
REMARK  166  A    between atoms: _421  and  _422
REMARK  167  A    between atoms: _421  and  _424
REMARK  168  A    between atoms: _424  and  _425
REMARK  169  A    between atoms: _428  and  _430
REMARK  170  A    between atoms: _430  and  _431
REMARK  171  A    between atoms: _430  and  _433
REMARK  172  A    between atoms: _433  and  _434
REMARK  173  A    between atoms: _444  and  _446
REMARK  174  A    between atoms: _446  and  _447
REMARK  175  A    between atoms: _446  and  _449
REMARK  176  A    between atoms: _449  and  _450
REMARK  177  A    between atoms: _450  and  _451
REMARK  178  A    between atoms: _453  and  _455
REMARK  179  A    between atoms: _455  and  _456
REMARK  180  A    between atoms: _455  and  _458
REMARK  181  A    between atoms: _458  and  _459
REMARK  182  A    between atoms: _464  and  _466
REMARK  183  A    between atoms: _466  and  _467
REMARK  184  A    between atoms: _470  and  _471
REMARK  185  A    between atoms: _476  and  _478
REMARK  186  A    between atoms: _478  and  _479
REMARK  187  A    between atoms: _478  and  _481
REMARK  188  A    between atoms: _481  and  _482
REMARK  189  A    between atoms: _492  and  _494
REMARK  190  A    between atoms: _494  and  _495
REMARK  191  A    between atoms: _499  and  _500
REMARK  192  A    between atoms: _505  and  _507
REMARK  193  A    between atoms: _507  and  _508
REMARK  194  A    between atoms: _507  and  _510
REMARK  195  A    between atoms: _510  and  _511
REMARK  196  A    between atoms: _511  and  _512
REMARK  197  A    between atoms: _517  and  _519
REMARK  198  A    between atoms: _519  and  _520
REMARK  199  A    between atoms: _522  and  _524
REMARK  200  A    between atoms: _524  and  _525
REMARK  201  A    between atoms: _527  and  _529
REMARK  202  A    between atoms: _529  and  _530
REMARK  203  A    between atoms: _529  and  _532
REMARK  204  A    between atoms: _532  and  _533
REMARK  205  A    between atoms: _543  and  _545
REMARK  206  A    between atoms: _545  and  _546
REMARK  207  A    between atoms: _545  and  _548
REMARK  208  A    between atoms: _548  and  _549
REMARK  209  A    between atoms: _552  and  _554
REMARK  210  A    between atoms: _554  and  _555
REMARK  211  A    between atoms: _554  and  _557
REMARK  212  A    between atoms: _557  and  _558
REMARK  213  A    between atoms: _561  and  _563
REMARK  214  A    between atoms: _563  and  _564
REMARK  215  A    between atoms: _563  and  _566
REMARK  216  A    between atoms: _566  and  _567
REMARK  217  A    between atoms: _567  and  _568
REMARK  218  A    between atoms: _568  and  _569
REMARK  219  A    between atoms: _578  and  _580
REMARK  220  A    between atoms: _580  and  _581
REMARK  221  A    between atoms: _580  and  _583
REMARK  222  A    between atoms: _583  and  _584
REMARK  223  A    between atoms: _594  and  _596
REMARK  224  A    between atoms: _596  and  _597
REMARK  225  A    between atoms: _600  and  _602
REMARK  226  A    between atoms: _602  and  _603
REMARK  227  A    between atoms: _602  and  _605
REMARK  228  A    between atoms: _605  and  _606
REMARK  229  A    between atoms: _606  and  _607
REMARK  230  A    between atoms: _610  and  _612
REMARK  231  A    between atoms: _612  and  _613
REMARK  232  A    between atoms: _615  and  _617
REMARK  233  A    between atoms: _617  and  _618
REMARK  234  A    between atoms: _617  and  _620
REMARK  235  A    between atoms: _620  and  _621
REMARK  236  A    between atoms: _626  and  _628
REMARK  237  A    between atoms: _628  and  _629
REMARK  238  A    between atoms: _632  and  _634
REMARK  239  A    between atoms: _634  and  _635
REMARK  240  A    between atoms: _634  and  _637
REMARK  241  A    between atoms: _637  and  _638
REMARK  242  A    between atoms: _641  and  _643
REMARK  243  A    between atoms: _643  and  _644
REMARK  244  A    between atoms: _643  and  _646
REMARK  245  A    between atoms: _646  and  _647
REMARK  246  A    between atoms: _653  and  _655
REMARK  247  A    between atoms: _655  and  _656
REMARK  248  A    between atoms: _655  and  _658
REMARK  249  A    between atoms: _658  and  _659
REMARK  250  A    between atoms: _659  and  _660
REMARK  251  A    between atoms: _663  and  _665
REMARK  252  A    between atoms: _665  and  _666
REMARK  253  A    between atoms: _665  and  _668
REMARK  254  A    between atoms: _668  and  _669
REMARK  255  A    between atoms: _669  and  _670
REMARK  256  A    between atoms: _670  and  _671
REMARK                            x       y       z     vdW  Elec       q    Type
REMARK                         _______ _______ _______ _____ _____    ______ ____
ROOT
ATOM      1  O   HOH     1       3.871  -2.343  11.728  0.00  0.00    +0.000 OA
ENDROOT
TORSDOF 0
REMARK  Name = ../refined-set-2016/3k00/3k00_pocket.pdb
REMARK  256 active torsions:
REMARK  status: ('A' for Active; 'I' for Inactive)
REMARK    1  A    between atoms: _1  and  _3
REMARK    2  A    between atoms: _3  and  _4
REMARK    3  A    between atoms: _3  and  _6
REMARK    4  A    between atoms: _6  and  _7
REMARK    5  A    between atoms: _10  and  _12
REMARK    6  A    between atoms: _12  and  _13
REMARK    7  A    between atoms: _12  and  _15
REMARK    8  A    between atoms: _15  and  _16
REMARK    9  A    between atoms: _19  and  _21
REMARK   10  A    between atoms: _21  and  _22
REMARK   11  A    between atoms: _21  and  _24
REMARK   12  A    between atoms: _24  and  _25
REMARK   13  A    between atoms: _27  and  _29
REMARK   14  A    between atoms: _29  and  _30
REMARK   15  A    between atoms: _29  and  _32
REMARK   16  A    between atoms: _32  and  _33
REMARK   17  A    between atoms: _38  and  _40
REMARK   18  A    between atoms: _40  and  _41
REMARK   19  A    between atoms: _40  and  _43
REMARK   20  A    between atoms: _43  and  _44
REMARK   21  A    between atoms: _44  and  _45
REMARK   22  A    between atoms: _48  and  _50
REMARK   23  A    between atoms: _50  and  _51
REMARK   24  A    between atoms: _54  and  _56
REMARK   25  A    between atoms: _56  and  _57
REMARK   26  A    between atoms: _56  and  _59
REMARK   27  A    between atoms: _59  and  _60
REMARK   28  A    between atoms: _60  and  _61
REMARK   29  A    between atoms: _64  and  _66
REMARK   30  A    between atoms: _66  and  _67
REMARK   31  A    between atoms: _66  and  _69
REMARK   32  A    between atoms: _69  and  _70
REMARK   33  A    between atoms: _70  and  _71
REMARK   34  A    between atoms: _71  and  _72
REMARK   35  A    between atoms: _72  and  _73
REMARK   36  A    between atoms: _77  and  _79
REMARK   37  A    between atoms: _79  and  _80
REMARK   38  A    between atoms: _79  and  _82
REMARK   39  A    between atoms: _82  and  _83
REMARK   40  A    between atoms: _88  and  _89
REMARK   41  A    between atoms: _91  and  _93
REMARK   42  A    between atoms: _93  and  _94
REMARK   43  A    between atoms: _93  and  _96
REMARK   44  A    between atoms: _96  and  _97
REMARK   45  A    between atoms: _102  and  _104
REMARK   46  A    between atoms: _104  and  _105
REMARK   47  A    between atoms: _104  and  _107
REMARK   48  A    between atoms: _111  and  _112
REMARK   49  A    between atoms: _117  and  _119
REMARK   50  A    between atoms: _119  and  _120
REMARK   51  A    between atoms: _119  and  _122
REMARK   52  A    between atoms: _122  and  _123
REMARK   53  A    between atoms: _129  and  _131
REMARK   54  A    between atoms: _131  and  _132
REMARK   55  A    between atoms: _134  and  _136
REMARK   56  A    between atoms: _136  and  _137
REMARK   57  A    between atoms: _136  and  _139
REMARK   58  A    between atoms: _139  and  _140
REMARK   59  A    between atoms: _140  and  _141
REMARK   60  A    between atoms: _144  and  _146
REMARK   61  A    between atoms: _146  and  _147
REMARK   62  A    between atoms: _150  and  _152
REMARK   63  A    between atoms: _152  and  _153
REMARK   64  A    between atoms: _152  and  _155
REMARK   65  A    between atoms: _155  and  _156
REMARK   66  A    between atoms: _161  and  _163
REMARK   67  A    between atoms: _163  and  _164
REMARK   68  A    between atoms: _167  and  _169
REMARK   69  A    between atoms: _169  and  _170
REMARK   70  A    between atoms: _169  and  _172
REMARK   71  A    between atoms: _172  and  _173
REMARK   72  A    between atoms: _173  and  _174
REMARK   73  A    between atoms: _174  and  _175
REMARK   74  A    between atoms: _175  and  _176
REMARK   75  A    between atoms: _180  and  _182
REMARK   76  A    between atoms: _182  and  _183
REMARK   77  A    between atoms: _182  and  _185
REMARK   78  A    between atoms: _185  and  _186
REMARK   79  A    between atoms: _186  and  _187
REMARK   80  A    between atoms: _187  and  _188
REMARK   81  A    between atoms: _188  and  _189
REMARK   82  A    between atoms: _193  and  _195
REMARK   83  A    between atoms: _195  and  _196
REMARK   84  A    between atoms: _195  and  _198
REMARK   85  A    between atoms: _198  and  _199
REMARK   86  A    between atoms: _199  and  _200
REMARK   87  A    between atoms: _200  and  _201
REMARK   88  A    between atoms: _210  and  _212
REMARK   89  A    between atoms: _212  and  _213
REMARK   90  A    between atoms: _212  and  _215
REMARK   91  A    between atoms: _215  and  _216
REMARK   92  A    between atoms: _216  and  _217
REMARK   93  A    between atoms: _220  and  _222
REMARK   94  A    between atoms: _222  and  _223
REMARK   95  A    between atoms: _222  and  _225
REMARK   96  A    between atoms: _228  and  _230
REMARK   97  A    between atoms: _230  and  _231
REMARK   98  A    between atoms: _234  and  _236
REMARK   99  A    between atoms: _236  and  _237
REMARK  100  A    between atoms: _236  and  _239
REMARK  101  A    between atoms: _239  and  _240
REMARK  102  A    between atoms: _250  and  _252
REMARK  103  A    between atoms: _252  and  _253
REMARK  104  A    between atoms: _252  and  _255
REMARK  105  A    between atoms: _258  and  _260
REMARK  106  A    between atoms: _260  and  _261
REMARK  107  A    between atoms: _260  and  _263
REMARK  108  A    between atoms: _263  and  _264
REMARK  109  A    between atoms: _267  and  _269
REMARK  110  A    between atoms: _269  and  _270
REMARK  111  A    between atoms: _269  and  _272
REMARK  112  A    between atoms: _272  and  _273
REMARK  113  A    between atoms: _279  and  _281
REMARK  114  A    between atoms: _281  and  _282
REMARK  115  A    between atoms: _281  and  _284
REMARK  116  A    between atoms: _284  and  _285
REMARK  117  A    between atoms: _285  and  _286
REMARK  118  A    between atoms: _291  and  _293
REMARK  119  A    between atoms: _293  and  _294
REMARK  120  A    between atoms: _293  and  _296
REMARK  121  A    between atoms: _299  and  _301
REMARK  122  A    between atoms: _301  and  _302
REMARK  123  A    between atoms: _301  and  _304
REMARK  124  A    between atoms: _304  and  _305
REMARK  125  A    between atoms: _308  and  _310
REMARK  126  A    between atoms: _310  and  _311
REMARK  127  A    between atoms: _310  and  _313
REMARK  128  A    between atoms: _313  and  _314
REMARK  129  A    between atoms: _317  and  _319
REMARK  130  A    between atoms: _319  and  _320
REMARK  131  A    between atoms: _319  and  _322
REMARK  132  A    between atoms: _322  and  _323
REMARK  133  A    between atoms: _326  and  _328
REMARK  134  A    between atoms: _328  and  _329
REMARK  135  A    between atoms: _328  and  _331
REMARK  136  A    between atoms: _331  and  _332
REMARK  137  A    between atoms: _335  and  _337
REMARK  138  A    between atoms: _337  and  _338
REMARK  139  A    between atoms: _337  and  _340
REMARK  140  A    between atoms: _340  and  _341
REMARK  141  A    between atoms: _341  and  _342
REMARK  142  A    between atoms: _342  and  _343
REMARK  143  A    between atoms: _352  and  _354
REMARK  144  A    between atoms: _354  and  _355
REMARK  145  A    between atoms: _354  and  _357
REMARK  146  A    between atoms: _357  and  _358
REMARK  147  A    between atoms: _361  and  _363
REMARK  148  A    between atoms: _363  and  _364
REMARK  149  A    between atoms: _363  and  _366
REMARK  150  A    between atoms: _366  and  _367
REMARK  151  A    between atoms: _371  and  _372
REMARK  152  A    between atoms: _377  and  _379
REMARK  153  A    between atoms: _379  and  _380
REMARK  154  A    between atoms: _379  and  _382
REMARK  155  A    between atoms: _382  and  _383
REMARK  156  A    between atoms: _388  and  _389
REMARK  157  A    between atoms: _391  and  _393
REMARK  158  A    between atoms: _393  and  _394
REMARK  159  A    between atoms: _393  and  _396
REMARK  160  A    between atoms: _396  and  _397
REMARK  161  A    between atoms: _407  and  _409
REMARK  162  A    between atoms: _409  and  _410
REMARK  163  A    between atoms: _409  and  _412
REMARK  164  A    between atoms: _412  and  _413
REMARK  165  A    between atoms: _419  and  _421
REMARK  166  A    between atoms: _421  and  _422
REMARK  167  A    between atoms: _421  and  _424
REMARK  168  A    between atoms: _424  and  _425
REMARK  169  A    between atoms: _428  and  _430
REMARK  170  A    between atoms: _430  and  _431
REMARK  171  A    between atoms: _430  and  _433
REMARK  172  A    between atoms: _433  and  _434
REMARK  173  A    between atoms: _444  and  _446
REMARK  174  A    between atoms: _446  and  _447
REMARK  175  A    between atoms: _446  and  _449
REMARK  176  A    between atoms: _449  and  _450
REMARK  177  A    between atoms: _450  and  _451
REMARK  178  A    between atoms: _453  and  _455
REMARK  179  A    between atoms: _455  and  _456
REMARK  180  A    between atoms: _455  and  _458
REMARK  181  A    between atoms: _458  and  _459
REMARK  182  A    between atoms: _464  and  _466
REMARK  183  A    between atoms: _466  and  _467
REMARK  184  A    between atoms: _470  and  _471
REMARK  185  A    between atoms: _476  and  _478
REMARK  186  A    between atoms: _478  and  _479
REMARK  187  A    between atoms: _478  and  _481
REMARK  188  A    between atoms: _481  and  _482
REMARK  189  A    between atoms: _492  and  _494
REMARK  190  A    between atoms: _494  and  _495
REMARK  191  A    between atoms: _499  and  _500
REMARK  192  A    between atoms: _505  and  _507
REMARK  193  A    between atoms: _507  and  _508
REMARK  194  A    between atoms: _507  and  _510
REMARK  195  A    between atoms: _510  and  _511
REMARK  196  A    between atoms: _511  and  _512
REMARK  197  A    between atoms: _517  and  _519
REMARK  198  A    between atoms: _519  and  _520
REMARK  199  A    between atoms: _522  and  _524
REMARK  200  A    between atoms: _524  and  _525
REMARK  201  A    between atoms: _527  and  _529
REMARK  202  A    between atoms: _529  and  _530
REMARK  203  A    between atoms: _529  and  _532
REMARK  204  A    between atoms: _532  and  _533
REMARK  205  A    between atoms: _543  and  _545
REMARK  206  A    between atoms: _545  and  _546
REMARK  207  A    between atoms: _545  and  _548
REMARK  208  A    between atoms: _548  and  _549
REMARK  209  A    between atoms: _552  and  _554
REMARK  210  A    between atoms: _554  and  _555
REMARK  211  A    between atoms: _554  and  _557
REMARK  212  A    between atoms: _557  and  _558
REMARK  213  A    between atoms: _561  and  _563
REMARK  214  A    between atoms: _563  and  _564
REMARK  215  A    between atoms: _563  and  _566
REMARK  216  A    between atoms: _566  and  _567
REMARK  217  A    between atoms: _567  and  _568
REMARK  218  A    between atoms: _568  and  _569
REMARK  219  A    between atoms: _578  and  _580
REMARK  220  A    between atoms: _580  and  _581
REMARK  221  A    between atoms: _580  and  _583
REMARK  222  A    between atoms: _583  and  _584
REMARK  223  A    between atoms: _594  and  _596
REMARK  224  A    between atoms: _596  and  _597
REMARK  225  A    between atoms: _600  and  _602
REMARK  226  A    between atoms: _602  and  _603
REMARK  227  A    between atoms: _602  and  _605
REMARK  228  A    between atoms: _605  and  _606
REMARK  229  A    between atoms: _606  and  _607
REMARK  230  A    between atoms: _610  and  _612
REMARK  231  A    between atoms: _612  and  _613
REMARK  232  A    between atoms: _615  and  _617
REMARK  233  A    between atoms: _617  and  _618
REMARK  234  A    between atoms: _617  and  _620
REMARK  235  A    between atoms: _620  and  _621
REMARK  236  A    between atoms: _626  and  _628
REMARK  237  A    between atoms: _628  and  _629
REMARK  238  A    between atoms: _632  and  _634
REMARK  239  A    between atoms: _634  and  _635
REMARK  240  A    between atoms: _634  and  _637
REMARK  241  A    between atoms: _637  and  _638
REMARK  242  A    between atoms: _641  and  _643
REMARK  243  A    between atoms: _643  and  _644
REMARK  244  A    between atoms: _643  and  _646
REMARK  245  A    between atoms: _646  and  _647
REMARK  246  A    between atoms: _653  and  _655
REMARK  247  A    between atoms: _655  and  _656
REMARK  248  A    between atoms: _655  and  _658
REMARK  249  A    between atoms: _658  and  _659
REMARK  250  A    between atoms: _659  and  _660
REMARK  251  A    between atoms: _663  and  _665
REMARK  252  A    between atoms: _665  and  _666
REMARK  253  A    between atoms: _665  and  _668
REMARK  254  A    between atoms: _668  and  _669
REMARK  255  A    between atoms: _669  and  _670
REMARK  256  A    between atoms: _670  and  _671
REMARK                            x       y       z     vdW  Elec       q    Type
REMARK                         _______ _______ _______ _____ _____    ______ ____
ROOT
ATOM      1  O   HOH     1      -4.870   6.042  14.487  0.00  0.00    +0.000 OA
ENDROOT
TORSDOF 0
REMARK  Name = ../refined-set-2016/3k00/3k00_pocket.pdb
REMARK  256 active torsions:
REMARK  status: ('A' for Active; 'I' for Inactive)
REMARK    1  A    between atoms: _1  and  _3
REMARK    2  A    between atoms: _3  and  _4
REMARK    3  A    between atoms: _3  and  _6
REMARK    4  A    between atoms: _6  and  _7
REMARK    5  A    between atoms: _10  and  _12
REMARK    6  A    between atoms: _12  and  _13
REMARK    7  A    between atoms: _12  and  _15
REMARK    8  A    between atoms: _15  and  _16
REMARK    9  A    between atoms: _19  and  _21
REMARK   10  A    between atoms: _21  and  _22
REMARK   11  A    between atoms: _21  and  _24
REMARK   12  A    between atoms: _24  and  _25
REMARK   13  A    between atoms: _27  and  _29
REMARK   14  A    between atoms: _29  and  _30
REMARK   15  A    between atoms: _29  and  _32
REMARK   16  A    between atoms: _32  and  _33
REMARK   17  A    between atoms: _38  and  _40
REMARK   18  A    between atoms: _40  and  _41
REMARK   19  A    between atoms: _40  and  _43
REMARK   20  A    between atoms: _43  and  _44
REMARK   21  A    between atoms: _44  and  _45
REMARK   22  A    between atoms: _48  and  _50
REMARK   23  A    between atoms: _50  and  _51
REMARK   24  A    between atoms: _54  and  _56
REMARK   25  A    between atoms: _56  and  _57
REMARK   26  A    between atoms: _56  and  _59
REMARK   27  A    between atoms: _59  and  _60
REMARK   28  A    between atoms: _60  and  _61
REMARK   29  A    between atoms: _64  and  _66
REMARK   30  A    between atoms: _66  and  _67
REMARK   31  A    between atoms: _66  and  _69
REMARK   32  A    between atoms: _69  and  _70
REMARK   33  A    between atoms: _70  and  _71
REMARK   34  A    between atoms: _71  and  _72
REMARK   35  A    between atoms: _72  and  _73
REMARK   36  A    between atoms: _77  and  _79
REMARK   37  A    between atoms: _79  and  _80
REMARK   38  A    between atoms: _79  and  _82
REMARK   39  A    between atoms: _82  and  _83
REMARK   40  A    between atoms: _88  and  _89
REMARK   41  A    between atoms: _91  and  _93
REMARK   42  A    between atoms: _93  and  _94
REMARK   43  A    between atoms: _93  and  _96
REMARK   44  A    between atoms: _96  and  _97
REMARK   45  A    between atoms: _102  and  _104
REMARK   46  A    between atoms: _104  and  _105
REMARK   47  A    between atoms: _104  and  _107
REMARK   48  A    between atoms: _111  and  _112
REMARK   49  A    between atoms: _117  and  _119
REMARK   50  A    between atoms: _119  and  _120
REMARK   51  A    between atoms: _119  and  _122
REMARK   52  A    between atoms: _122  and  _123
REMARK   53  A    between atoms: _129  and  _131
REMARK   54  A    between atoms: _131  and  _132
REMARK   55  A    between atoms: _134  and  _136
REMARK   56  A    between atoms: _136  and  _137
REMARK   57  A    between atoms: _136  and  _139
REMARK   58  A    between atoms: _139  and  _140
REMARK   59  A    between atoms: _140  and  _141
REMARK   60  A    between atoms: _144  and  _146
REMARK   61  A    between atoms: _146  and  _147
REMARK   62  A    between atoms: _150  and  _152
REMARK   63  A    between atoms: _152  and  _153
REMARK   64  A    between atoms: _152  and  _155
REMARK   65  A    between atoms: _155  and  _156
REMARK   66  A    between atoms: _161  and  _163
REMARK   67  A    between atoms: _163  and  _164
REMARK   68  A    between atoms: _167  and  _169
REMARK   69  A    between atoms: _169  and  _170
REMARK   70  A    between atoms: _169  and  _172
REMARK   71  A    between atoms: _172  and  _173
REMARK   72  A    between atoms: _173  and  _174
REMARK   73  A    between atoms: _174  and  _175
REMARK   74  A    between atoms: _175  and  _176
REMARK   75  A    between atoms: _180  and  _182
REMARK   76  A    between atoms: _182  and  _183
REMARK   77  A    between atoms: _182  and  _185
REMARK   78  A    between atoms: _185  and  _186
REMARK   79  A    between atoms: _186  and  _187
REMARK   80  A    between atoms: _187  and  _188
REMARK   81  A    between atoms: _188  and  _189
REMARK   82  A    between atoms: _193  and  _195
REMARK   83  A    between atoms: _195  and  _196
REMARK   84  A    between atoms: _195  and  _198
REMARK   85  A    between atoms: _198  and  _199
REMARK   86  A    between atoms: _199  and  _200
REMARK   87  A    between atoms: _200  and  _201
REMARK   88  A    between atoms: _210  and  _212
REMARK   89  A    between atoms: _212  and  _213
REMARK   90  A    between atoms: _212  and  _215
REMARK   91  A    between atoms: _215  and  _216
REMARK   92  A    between atoms: _216  and  _217
REMARK   93  A    between atoms: _220  and  _222
REMARK   94  A    between atoms: _222  and  _223
REMARK   95  A    between atoms: _222  and  _225
REMARK   96  A    between atoms: _228  and  _230
REMARK   97  A    between atoms: _230  and  _231
REMARK   98  A    between atoms: _234  and  _236
REMARK   99  A    between atoms: _236  and  _237
REMARK  100  A    between atoms: _236  and  _239
REMARK  101  A    between atoms: _239  and  _240
REMARK  102  A    between atoms: _250  and  _252
REMARK  103  A    between atoms: _252  and  _253
REMARK  104  A    between atoms: _252  and  _255
REMARK  105  A    between atoms: _258  and  _260
REMARK  106  A    between atoms: _260  and  _261
REMARK  107  A    between atoms: _260  and  _263
REMARK  108  A    between atoms: _263  and  _264
REMARK  109  A    between atoms: _267  and  _269
REMARK  110  A    between atoms: _269  and  _270
REMARK  111  A    between atoms: _269  and  _272
REMARK  112  A    between atoms: _272  and  _273
REMARK  113  A    between atoms: _279  and  _281
REMARK  114  A    between atoms: _281  and  _282
REMARK  115  A    between atoms: _281  and  _284
REMARK  116  A    between atoms: _284  and  _285
REMARK  117  A    between atoms: _285  and  _286
REMARK  118  A    between atoms: _291  and  _293
REMARK  119  A    between atoms: _293  and  _294
REMARK  120  A    between atoms: _293  and  _296
REMARK  121  A    between atoms: _299  and  _301
REMARK  122  A    between atoms: _301  and  _302
REMARK  123  A    between atoms: _301  and  _304
REMARK  124  A    between atoms: _304  and  _305
REMARK  125  A    between atoms: _308  and  _310
REMARK  126  A    between atoms: _310  and  _311
REMARK  127  A    between atoms: _310  and  _313
REMARK  128  A    between atoms: _313  and  _314
REMARK  129  A    between atoms: _317  and  _319
REMARK  130  A    between atoms: _319  and  _320
REMARK  131  A    between atoms: _319  and  _322
REMARK  132  A    between atoms: _322  and  _323
REMARK  133  A    between atoms: _326  and  _328
REMARK  134  A    between atoms: _328  and  _329
REMARK  135  A    between atoms: _328  and  _331
REMARK  136  A    between atoms: _331  and  _332
REMARK  137  A    between atoms: _335  and  _337
REMARK  138  A    between atoms: _337  and  _338
REMARK  139  A    between atoms: _337  and  _340
REMARK  140  A    between atoms: _340  and  _341
REMARK  141  A    between atoms: _341  and  _342
REMARK  142  A    between atoms: _342  and  _343
REMARK  143  A    between atoms: _352  and  _354
REMARK  144  A    between atoms: _354  and  _355
REMARK  145  A    between atoms: _354  and  _357
REMARK  146  A    between atoms: _357  and  _358
REMARK  147  A    between atoms: _361  and  _363
REMARK  148  A    between atoms: _363  and  _364
REMARK  149  A    between atoms: _363  and  _366
REMARK  150  A    between atoms: _366  and  _367
REMARK  151  A    between atoms: _371  and  _372
REMARK  152  A    between atoms: _377  and  _379
REMARK  153  A    between atoms: _379  and  _380
REMARK  154  A    between atoms: _379  and  _382
REMARK  155  A    between atoms: _382  and  _383
REMARK  156  A    between atoms: _388  and  _389
REMARK  157  A    between atoms: _391  and  _393
REMARK  158  A    between atoms: _393  and  _394
REMARK  159  A    between atoms: _393  and  _396
REMARK  160  A    between atoms: _396  and  _397
REMARK  161  A    between atoms: _407  and  _409
REMARK  162  A    between atoms: _409  and  _410
REMARK  163  A    between atoms: _409  and  _412
REMARK  164  A    between atoms: _412  and  _413
REMARK  165  A    between atoms: _419  and  _421
REMARK  166  A    between atoms: _421  and  _422
REMARK  167  A    between atoms: _421  and  _424
REMARK  168  A    between atoms: _424  and  _425
REMARK  169  A    between atoms: _428  and  _430
REMARK  170  A    between atoms: _430  and  _431
REMARK  171  A    between atoms: _430  and  _433
REMARK  172  A    between atoms: _433  and  _434
REMARK  173  A    between atoms: _444  and  _446
REMARK  174  A    between atoms: _446  and  _447
REMARK  175  A    between atoms: _446  and  _449
REMARK  176  A    between atoms: _449  and  _450
REMARK  177  A    between atoms: _450  and  _451
REMARK  178  A    between atoms: _453  and  _455
REMARK  179  A    between atoms: _455  and  _456
REMARK  180  A    between atoms: _455  and  _458
REMARK  181  A    between atoms: _458  and  _459
REMARK  182  A    between atoms: _464  and  _466
REMARK  183  A    between atoms: _466  and  _467
REMARK  184  A    between atoms: _470  and  _471
REMARK  185  A    between atoms: _476  and  _478
REMARK  186  A    between atoms: _478  and  _479
REMARK  187  A    between atoms: _478  and  _481
REMARK  188  A    between atoms: _481  and  _482
REMARK  189  A    between atoms: _492  and  _494
REMARK  190  A    between atoms: _494  and  _495
REMARK  191  A    between atoms: _499  and  _500
REMARK  192  A    between atoms: _505  and  _507
REMARK  193  A    between atoms: _507  and  _508
REMARK  194  A    between atoms: _507  and  _510
REMARK  195  A    between atoms: _510  and  _511
REMARK  196  A    between atoms: _511  and  _512
REMARK  197  A    between atoms: _517  and  _519
REMARK  198  A    between atoms: _519  and  _520
REMARK  199  A    between atoms: _522  and  _524
REMARK  200  A    between atoms: _524  and  _525
REMARK  201  A    between atoms: _527  and  _529
REMARK  202  A    between atoms: _529  and  _530
REMARK  203  A    between atoms: _529  and  _532
REMARK  204  A    between atoms: _532  and  _533
REMARK  205  A    between atoms: _543  and  _545
REMARK  206  A    between atoms: _545  and  _546
REMARK  207  A    between atoms: _545  and  _548
REMARK  208  A    between atoms: _548  and  _549
REMARK  209  A    between atoms: _552  and  _554
REMARK  210  A    between atoms: _554  and  _555
REMARK  211  A    between atoms: _554  and  _557
REMARK  212  A    between atoms: _557  and  _558
REMARK  213  A    between atoms: _561  and  _563
REMARK  214  A    between atoms: _563  and  _564
REMARK  215  A    between atoms: _563  and  _566
REMARK  216  A    between atoms: _566  and  _567
REMARK  217  A    between atoms: _567  and  _568
REMARK  218  A    between atoms: _568  and  _569
REMARK  219  A    between atoms: _578  and  _580
REMARK  220  A    between atoms: _580  and  _581
REMARK  221  A    between atoms: _580  and  _583
REMARK  222  A    between atoms: _583  and  _584
REMARK  223  A    between atoms: _594  and  _596
REMARK  224  A    between atoms: _596  and  _597
REMARK  225  A    between atoms: _600  and  _602
REMARK  226  A    between atoms: _602  and  _603
REMARK  227  A    between atoms: _602  and  _605
REMARK  228  A    between atoms: _605  and  _606
REMARK  229  A    between atoms: _606  and  _607
REMARK  230  A    between atoms: _610  and  _612
REMARK  231  A    between atoms: _612  and  _613
REMARK  232  A    between atoms: _615  and  _617
REMARK  233  A    between atoms: _617  and  _618
REMARK  234  A    between atoms: _617  and  _620
REMARK  235  A    between atoms: _620  and  _621
REMARK  236  A    between atoms: _626  and  _628
REMARK  237  A    between atoms: _628  and  _629
REMARK  238  A    between atoms: _632  and  _634
REMARK  239  A    between atoms: _634  and  _635
REMARK  240  A    between atoms: _634  and  _637
REMARK  241  A    between atoms: _637  and  _638
REMARK  242  A    between atoms: _641  and  _643
REMARK  243  A    between atoms: _643  and  _644
REMARK  244  A    between atoms: _643  and  _646
REMARK  245  A    between atoms: _646  and  _647
REMARK  246  A    between atoms: _653  and  _655
REMARK  247  A    between atoms: _655  and  _656
REMARK  248  A    between atoms: _655  and  _658
REMARK  249  A    between atoms: _658  and  _659
REMARK  250  A    between atoms: _659  and  _660
REMARK  251  A    between atoms: _663  and  _665
REMARK  252  A    between atoms: _665  and  _666
REMARK  253  A    between atoms: _665  and  _668
REMARK  254  A    between atoms: _668  and  _669
REMARK  255  A    between atoms: _669  and  _670
REMARK  256  A    between atoms: _670  and  _671
REMARK                            x       y       z     vdW  Elec       q    Type
REMARK                         _______ _______ _______ _____ _____    ______ ____
ROOT
ATOM      1  O   HOH     1      -7.578  -0.569  15.770  0.00  0.00    +0.000 OA
ENDROOT
TORSDOF 0
REMARK  Name = ../refined-set-2016/3k00/3k00_pocket.pdb
REMARK  256 active torsions:
REMARK  status: ('A' for Active; 'I' for Inactive)
REMARK    1  A    between atoms: _1  and  _3
REMARK    2  A    between atoms: _3  and  _4
REMARK    3  A    between atoms: _3  and  _6
REMARK    4  A    between atoms: _6  and  _7
REMARK    5  A    between atoms: _10  and  _12
REMARK    6  A    between atoms: _12  and  _13
REMARK    7  A    between atoms: _12  and  _15
REMARK    8  A    between atoms: _15  and  _16
REMARK    9  A    between atoms: _19  and  _21
REMARK   10  A    between atoms: _21  and  _22
REMARK   11  A    between atoms: _21  and  _24
REMARK   12  A    between atoms: _24  and  _25
REMARK   13  A    between atoms: _27  and  _29
REMARK   14  A    between atoms: _29  and  _30
REMARK   15  A    between atoms: _29  and  _32
REMARK   16  A    between atoms: _32  and  _33
REMARK   17  A    between atoms: _38  and  _40
REMARK   18  A    between atoms: _40  and  _41
REMARK   19  A    between atoms: _40  and  _43
REMARK   20  A    between atoms: _43  and  _44
REMARK   21  A    between atoms: _44  and  _45
REMARK   22  A    between atoms: _48  and  _50
REMARK   23  A    between atoms: _50  and  _51
REMARK   24  A    between atoms: _54  and  _56
REMARK   25  A    between atoms: _56  and  _57
REMARK   26  A    between atoms: _56  and  _59
REMARK   27  A    between atoms: _59  and  _60
REMARK   28  A    between atoms: _60  and  _61
REMARK   29  A    between atoms: _64  and  _66
REMARK   30  A    between atoms: _66  and  _67
REMARK   31  A    between atoms: _66  and  _69
REMARK   32  A    between atoms: _69  and  _70
REMARK   33  A    between atoms: _70  and  _71
REMARK   34  A    between atoms: _71  and  _72
REMARK   35  A    between atoms: _72  and  _73
REMARK   36  A    between atoms: _77  and  _79
REMARK   37  A    between atoms: _79  and  _80
REMARK   38  A    between atoms: _79  and  _82
REMARK   39  A    between atoms: _82  and  _83
REMARK   40  A    between atoms: _88  and  _89
REMARK   41  A    between atoms: _91  and  _93
REMARK   42  A    between atoms: _93  and  _94
REMARK   43  A    between atoms: _93  and  _96
REMARK   44  A    between atoms: _96  and  _97
REMARK   45  A    between atoms: _102  and  _104
REMARK   46  A    between atoms: _104  and  _105
REMARK   47  A    between atoms: _104  and  _107
REMARK   48  A    between atoms: _111  and  _112
REMARK   49  A    between atoms: _117  and  _119
REMARK   50  A    between atoms: _119  and  _120
REMARK   51  A    between atoms: _119  and  _122
REMARK   52  A    between atoms: _122  and  _123
REMARK   53  A    between atoms: _129  and  _131
REMARK   54  A    between atoms: _131  and  _132
REMARK   55  A    between atoms: _134  and  _136
REMARK   56  A    between atoms: _136  and  _137
REMARK   57  A    between atoms: _136  and  _139
REMARK   58  A    between atoms: _139  and  _140
REMARK   59  A    between atoms: _140  and  _141
REMARK   60  A    between atoms: _144  and  _146
REMARK   61  A    between atoms: _146  and  _147
REMARK   62  A    between atoms: _150  and  _152
REMARK   63  A    between atoms: _152  and  _153
REMARK   64  A    between atoms: _152  and  _155
REMARK   65  A    between atoms: _155  and  _156
REMARK   66  A    between atoms: _161  and  _163
REMARK   67  A    between atoms: _163  and  _164
REMARK   68  A    between atoms: _167  and  _169
REMARK   69  A    between atoms: _169  and  _170
REMARK   70  A    between atoms: _169  and  _172
REMARK   71  A    between atoms: _172  and  _173
REMARK   72  A    between atoms: _173  and  _174
REMARK   73  A    between atoms: _174  and  _175
REMARK   74  A    between atoms: _175  and  _176
REMARK   75  A    between atoms: _180  and  _182
REMARK   76  A    between atoms: _182  and  _183
REMARK   77  A    between atoms: _182  and  _185
REMARK   78  A    between atoms: _185  and  _186
REMARK   79  A    between atoms: _186  and  _187
REMARK   80  A    between atoms: _187  and  _188
REMARK   81  A    between atoms: _188  and  _189
REMARK   82  A    between atoms: _193  and  _195
REMARK   83  A    between atoms: _195  and  _196
REMARK   84  A    between atoms: _195  and  _198
REMARK   85  A    between atoms: _198  and  _199
REMARK   86  A    between atoms: _199  and  _200
REMARK   87  A    between atoms: _200  and  _201
REMARK   88  A    between atoms: _210  and  _212
REMARK   89  A    between atoms: _212  and  _213
REMARK   90  A    between atoms: _212  and  _215
REMARK   91  A    between atoms: _215  and  _216
REMARK   92  A    between atoms: _216  and  _217
REMARK   93  A    between atoms: _220  and  _222
REMARK   94  A    between atoms: _222  and  _223
REMARK   95  A    between atoms: _222  and  _225
REMARK   96  A    between atoms: _228  and  _230
REMARK   97  A    between atoms: _230  and  _231
REMARK   98  A    between atoms: _234  and  _236
REMARK   99  A    between atoms: _236  and  _237
REMARK  100  A    between atoms: _236  and  _239
REMARK  101  A    between atoms: _239  and  _240
REMARK  102  A    between atoms: _250  and  _252
REMARK  103  A    between atoms: _252  and  _253
REMARK  104  A    between atoms: _252  and  _255
REMARK  105  A    between atoms: _258  and  _260
REMARK  106  A    between atoms: _260  and  _261
REMARK  107  A    between atoms: _260  and  _263
REMARK  108  A    between atoms: _263  and  _264
REMARK  109  A    between atoms: _267  and  _269
REMARK  110  A    between atoms: _269  and  _270
REMARK  111  A    between atoms: _269  and  _272
REMARK  112  A    between atoms: _272  and  _273
REMARK  113  A    between atoms: _279  and  _281
REMARK  114  A    between atoms: _281  and  _282
REMARK  115  A    between atoms: _281  and  _284
REMARK  116  A    between atoms: _284  and  _285
REMARK  117  A    between atoms: _285  and  _286
REMARK  118  A    between atoms: _291  and  _293
REMARK  119  A    between atoms: _293  and  _294
REMARK  120  A    between atoms: _293  and  _296
REMARK  121  A    between atoms: _299  and  _301
REMARK  122  A    between atoms: _301  and  _302
REMARK  123  A    between atoms: _301  and  _304
REMARK  124  A    between atoms: _304  and  _305
REMARK  125  A    between atoms: _308  and  _310
REMARK  126  A    between atoms: _310  and  _311
REMARK  127  A    between atoms: _310  and  _313
REMARK  128  A    between atoms: _313  and  _314
REMARK  129  A    between atoms: _317  and  _319
REMARK  130  A    between atoms: _319  and  _320
REMARK  131  A    between atoms: _319  and  _322
REMARK  132  A    between atoms: _322  and  _323
REMARK  133  A    between atoms: _326  and  _328
REMARK  134  A    between atoms: _328  and  _329
REMARK  135  A    between atoms: _328  and  _331
REMARK  136  A    between atoms: _331  and  _332
REMARK  137  A    between atoms: _335  and  _337
REMARK  138  A    between atoms: _337  and  _338
REMARK  139  A    between atoms: _337  and  _340
REMARK  140  A    between atoms: _340  and  _341
REMARK  141  A    between atoms: _341  and  _342
REMARK  142  A    between atoms: _342  and  _343
REMARK  143  A    between atoms: _352  and  _354
REMARK  144  A    between atoms: _354  and  _355
REMARK  145  A    between atoms: _354  and  _357
REMARK  146  A    between atoms: _357  and  _358
REMARK  147  A    between atoms: _361  and  _363
REMARK  148  A    between atoms: _363  and  _364
REMARK  149  A    between atoms: _363  and  _366
REMARK  150  A    between atoms: _366  and  _367
REMARK  151  A    between atoms: _371  and  _372
REMARK  152  A    between atoms: _377  and  _379
REMARK  153  A    between atoms: _379  and  _380
REMARK  154  A    between atoms: _379  and  _382
REMARK  155  A    between atoms: _382  and  _383
REMARK  156  A    between atoms: _388  and  _389
REMARK  157  A    between atoms: _391  and  _393
REMARK  158  A    between atoms: _393  and  _394
REMARK  159  A    between atoms: _393  and  _396
REMARK  160  A    between atoms: _396  and  _397
REMARK  161  A    between atoms: _407  and  _409
REMARK  162  A    between atoms: _409  and  _410
REMARK  163  A    between atoms: _409  and  _412
REMARK  164  A    between atoms: _412  and  _413
REMARK  165  A    between atoms: _419  and  _421
REMARK  166  A    between atoms: _421  and  _422
REMARK  167  A    between atoms: _421  and  _424
REMARK  168  A    between atoms: _424  and  _425
REMARK  169  A    between atoms: _428  and  _430
REMARK  170  A    between atoms: _430  and  _431
REMARK  171  A    between atoms: _430  and  _433
REMARK  172  A    between atoms: _433  and  _434
REMARK  173  A    between atoms: _444  and  _446
REMARK  174  A    between atoms: _446  and  _447
REMARK  175  A    between atoms: _446  and  _449
REMARK  176  A    between atoms: _449  and  _450
REMARK  177  A    between atoms: _450  and  _451
REMARK  178  A    between atoms: _453  and  _455
REMARK  179  A    between atoms: _455  and  _456
REMARK  180  A    between atoms: _455  and  _458
REMARK  181  A    between atoms: _458  and  _459
REMARK  182  A    between atoms: _464  and  _466
REMARK  183  A    between atoms: _466  and  _467
REMARK  184  A    between atoms: _470  and  _471
REMARK  185  A    between atoms: _476  and  _478
REMARK  186  A    between atoms: _478  and  _479
REMARK  187  A    between atoms: _478  and  _481
REMARK  188  A    between atoms: _481  and  _482
REMARK  189  A    between atoms: _492  and  _494
REMARK  190  A    between atoms: _494  and  _495
REMARK  191  A    between atoms: _499  and  _500
REMARK  192  A    between atoms: _505  and  _507
REMARK  193  A    between atoms: _507  and  _508
REMARK  194  A    between atoms: _507  and  _510
REMARK  195  A    between atoms: _510  and  _511
REMARK  196  A    between atoms: _511  and  _512
REMARK  197  A    between atoms: _517  and  _519
REMARK  198  A    between atoms: _519  and  _520
REMARK  199  A    between atoms: _522  and  _524
REMARK  200  A    between atoms: _524  and  _525
REMARK  201  A    between atoms: _527  and  _529
REMARK  202  A    between atoms: _529  and  _530
REMARK  203  A    between atoms: _529  and  _532
REMARK  204  A    between atoms: _532  and  _533
REMARK  205  A    between atoms: _543  and  _545
REMARK  206  A    between atoms: _545  and  _546
REMARK  207  A    between atoms: _545  and  _548
REMARK  208  A    between atoms: _548  and  _549
REMARK  209  A    between atoms: _552  and  _554
REMARK  210  A    between atoms: _554  and  _555
REMARK  211  A    between atoms: _554  and  _557
REMARK  212  A    between atoms: _557  and  _558
REMARK  213  A    between atoms: _561  and  _563
REMARK  214  A    between atoms: _563  and  _564
REMARK  215  A    between atoms: _563  and  _566
REMARK  216  A    between atoms: _566  and  _567
REMARK  217  A    between atoms: _567  and  _568
REMARK  218  A    between atoms: _568  and  _569
REMARK  219  A    between atoms: _578  and  _580
REMARK  220  A    between atoms: _580  and  _581
REMARK  221  A    between atoms: _580  and  _583
REMARK  222  A    between atoms: _583  and  _584
REMARK  223  A    between atoms: _594  and  _596
REMARK  224  A    between atoms: _596  and  _597
REMARK  225  A    between atoms: _600  and  _602
REMARK  226  A    between atoms: _602  and  _603
REMARK  227  A    between atoms: _602  and  _605
REMARK  228  A    between atoms: _605  and  _606
REMARK  229  A    between atoms: _606  and  _607
REMARK  230  A    between atoms: _610  and  _612
REMARK  231  A    between atoms: _612  and  _613
REMARK  232  A    between atoms: _615  and  _617
REMARK  233  A    between atoms: _617  and  _618
REMARK  234  A    between atoms: _617  and  _620
REMARK  235  A    between atoms: _620  and  _621
REMARK  236  A    between atoms: _626  and  _628
REMARK  237  A    between atoms: _628  and  _629
REMARK  238  A    between atoms: _632  and  _634
REMARK  239  A    between atoms: _634  and  _635
REMARK  240  A    between atoms: _634  and  _637
REMARK  241  A    between atoms: _637  and  _638
REMARK  242  A    between atoms: _641  and  _643
REMARK  243  A    between atoms: _643  and  _644
REMARK  244  A    between atoms: _643  and  _646
REMARK  245  A    between atoms: _646  and  _647
REMARK  246  A    between atoms: _653  and  _655
REMARK  247  A    between atoms: _655  and  _656
REMARK  248  A    between atoms: _655  and  _658
REMARK  249  A    between atoms: _658  and  _659
REMARK  250  A    between atoms: _659  and  _660
REMARK  251  A    between atoms: _663  and  _665
REMARK  252  A    between atoms: _665  and  _666
REMARK  253  A    between atoms: _665  and  _668
REMARK  254  A    between atoms: _668  and  _669
REMARK  255  A    between atoms: _669  and  _670
REMARK  256  A    between atoms: _670  and  _671
REMARK                            x       y       z     vdW  Elec       q    Type
REMARK                         _______ _______ _______ _____ _____    ______ ____
ROOT
ATOM      1  O   HOH     1       1.777   3.298  20.977  0.00  0.00    +0.000 OA
ENDROOT
TORSDOF 0
REMARK  Name = ../refined-set-2016/3k00/3k00_pocket.pdb
REMARK  256 active torsions:
REMARK  status: ('A' for Active; 'I' for Inactive)
REMARK    1  A    between atoms: _1  and  _3
REMARK    2  A    between atoms: _3  and  _4
REMARK    3  A    between atoms: _3  and  _6
REMARK    4  A    between atoms: _6  and  _7
REMARK    5  A    between atoms: _10  and  _12
REMARK    6  A    between atoms: _12  and  _13
REMARK    7  A    between atoms: _12  and  _15
REMARK    8  A    between atoms: _15  and  _16
REMARK    9  A    between atoms: _19  and  _21
REMARK   10  A    between atoms: _21  and  _22
REMARK   11  A    between atoms: _21  and  _24
REMARK   12  A    between atoms: _24  and  _25
REMARK   13  A    between atoms: _27  and  _29
REMARK   14  A    between atoms: _29  and  _30
REMARK   15  A    between atoms: _29  and  _32
REMARK   16  A    between atoms: _32  and  _33
REMARK   17  A    between atoms: _38  and  _40
REMARK   18  A    between atoms: _40  and  _41
REMARK   19  A    between atoms: _40  and  _43
REMARK   20  A    between atoms: _43  and  _44
REMARK   21  A    between atoms: _44  and  _45
REMARK   22  A    between atoms: _48  and  _50
REMARK   23  A    between atoms: _50  and  _51
REMARK   24  A    between atoms: _54  and  _56
REMARK   25  A    between atoms: _56  and  _57
REMARK   26  A    between atoms: _56  and  _59
REMARK   27  A    between atoms: _59  and  _60
REMARK   28  A    between atoms: _60  and  _61
REMARK   29  A    between atoms: _64  and  _66
REMARK   30  A    between atoms: _66  and  _67
REMARK   31  A    between atoms: _66  and  _69
REMARK   32  A    between atoms: _69  and  _70
REMARK   33  A    between atoms: _70  and  _71
REMARK   34  A    between atoms: _71  and  _72
REMARK   35  A    between atoms: _72  and  _73
REMARK   36  A    between atoms: _77  and  _79
REMARK   37  A    between atoms: _79  and  _80
REMARK   38  A    between atoms: _79  and  _82
REMARK   39  A    between atoms: _82  and  _83
REMARK   40  A    between atoms: _88  and  _89
REMARK   41  A    between atoms: _91  and  _93
REMARK   42  A    between atoms: _93  and  _94
REMARK   43  A    between atoms: _93  and  _96
REMARK   44  A    between atoms: _96  and  _97
REMARK   45  A    between atoms: _102  and  _104
REMARK   46  A    between atoms: _104  and  _105
REMARK   47  A    between atoms: _104  and  _107
REMARK   48  A    between atoms: _111  and  _112
REMARK   49  A    between atoms: _117  and  _119
REMARK   50  A    between atoms: _119  and  _120
REMARK   51  A    between atoms: _119  and  _122
REMARK   52  A    between atoms: _122  and  _123
REMARK   53  A    between atoms: _129  and  _131
REMARK   54  A    between atoms: _131  and  _132
REMARK   55  A    between atoms: _134  and  _136
REMARK   56  A    between atoms: _136  and  _137
REMARK   57  A    between atoms: _136  and  _139
REMARK   58  A    between atoms: _139  and  _140
REMARK   59  A    between atoms: _140  and  _141
REMARK   60  A    between atoms: _144  and  _146
REMARK   61  A    between atoms: _146  and  _147
REMARK   62  A    between atoms: _150  and  _152
REMARK   63  A    between atoms: _152  and  _153
REMARK   64  A    between atoms: _152  and  _155
REMARK   65  A    between atoms: _155  and  _156
REMARK   66  A    between atoms: _161  and  _163
REMARK   67  A    between atoms: _163  and  _164
REMARK   68  A    between atoms: _167  and  _169
REMARK   69  A    between atoms: _169  and  _170
REMARK   70  A    between atoms: _169  and  _172
REMARK   71  A    between atoms: _172  and  _173
REMARK   72  A    between atoms: _173  and  _174
REMARK   73  A    between atoms: _174  and  _175
REMARK   74  A    between atoms: _175  and  _176
REMARK   75  A    between atoms: _180  and  _182
REMARK   76  A    between atoms: _182  and  _183
REMARK   77  A    between atoms: _182  and  _185
REMARK   78  A    between atoms: _185  and  _186
REMARK   79  A    between atoms: _186  and  _187
REMARK   80  A    between atoms: _187  and  _188
REMARK   81  A    between atoms: _188  and  _189
REMARK   82  A    between atoms: _193  and  _195
REMARK   83  A    between atoms: _195  and  _196
REMARK   84  A    between atoms: _195  and  _198
REMARK   85  A    between atoms: _198  and  _199
REMARK   86  A    between atoms: _199  and  _200
REMARK   87  A    between atoms: _200  and  _201
REMARK   88  A    between atoms: _210  and  _212
REMARK   89  A    between atoms: _212  and  _213
REMARK   90  A    between atoms: _212  and  _215
REMARK   91  A    between atoms: _215  and  _216
REMARK   92  A    between atoms: _216  and  _217
REMARK   93  A    between atoms: _220  and  _222
REMARK   94  A    between atoms: _222  and  _223
REMARK   95  A    between atoms: _222  and  _225
REMARK   96  A    between atoms: _228  and  _230
REMARK   97  A    between atoms: _230  and  _231
REMARK   98  A    between atoms: _234  and  _236
REMARK   99  A    between atoms: _236  and  _237
REMARK  100  A    between atoms: _236  and  _239
REMARK  101  A    between atoms: _239  and  _240
REMARK  102  A    between atoms: _250  and  _252
REMARK  103  A    between atoms: _252  and  _253
REMARK  104  A    between atoms: _252  and  _255
REMARK  105  A    between atoms: _258  and  _260
REMARK  106  A    between atoms: _260  and  _261
REMARK  107  A    between atoms: _260  and  _263
REMARK  108  A    between atoms: _263  and  _264
REMARK  109  A    between atoms: _267  and  _269
REMARK  110  A    between atoms: _269  and  _270
REMARK  111  A    between atoms: _269  and  _272
REMARK  112  A    between atoms: _272  and  _273
REMARK  113  A    between atoms: _279  and  _281
REMARK  114  A    between atoms: _281  and  _282
REMARK  115  A    between atoms: _281  and  _284
REMARK  116  A    between atoms: _284  and  _285
REMARK  117  A    between atoms: _285  and  _286
REMARK  118  A    between atoms: _291  and  _293
REMARK  119  A    between atoms: _293  and  _294
REMARK  120  A    between atoms: _293  and  _296
REMARK  121  A    between atoms: _299  and  _301
REMARK  122  A    between atoms: _301  and  _302
REMARK  123  A    between atoms: _301  and  _304
REMARK  124  A    between atoms: _304  and  _305
REMARK  125  A    between atoms: _308  and  _310
REMARK  126  A    between atoms: _310  and  _311
REMARK  127  A    between atoms: _310  and  _313
REMARK  128  A    between atoms: _313  and  _314
REMARK  129  A    between atoms: _317  and  _319
REMARK  130  A    between atoms: _319  and  _320
REMARK  131  A    between atoms: _319  and  _322
REMARK  132  A    between atoms: _322  and  _323
REMARK  133  A    between atoms: _326  and  _328
REMARK  134  A    between atoms: _328  and  _329
REMARK  135  A    between atoms: _328  and  _331
REMARK  136  A    between atoms: _331  and  _332
REMARK  137  A    between atoms: _335  and  _337
REMARK  138  A    between atoms: _337  and  _338
REMARK  139  A    between atoms: _337  and  _340
REMARK  140  A    between atoms: _340  and  _341
REMARK  141  A    between atoms: _341  and  _342
REMARK  142  A    between atoms: _342  and  _343
REMARK  143  A    between atoms: _352  and  _354
REMARK  144  A    between atoms: _354  and  _355
REMARK  145  A    between atoms: _354  and  _357
REMARK  146  A    between atoms: _357  and  _358
REMARK  147  A    between atoms: _361  and  _363
REMARK  148  A    between atoms: _363  and  _364
REMARK  149  A    between atoms: _363  and  _366
REMARK  150  A    between atoms: _366  and  _367
REMARK  151  A    between atoms: _371  and  _372
REMARK  152  A    between atoms: _377  and  _379
REMARK  153  A    between atoms: _379  and  _380
REMARK  154  A    between atoms: _379  and  _382
REMARK  155  A    between atoms: _382  and  _383
REMARK  156  A    between atoms: _388  and  _389
REMARK  157  A    between atoms: _391  and  _393
REMARK  158  A    between atoms: _393  and  _394
REMARK  159  A    between atoms: _393  and  _396
REMARK  160  A    between atoms: _396  and  _397
REMARK  161  A    between atoms: _407  and  _409
REMARK  162  A    between atoms: _409  and  _410
REMARK  163  A    between atoms: _409  and  _412
REMARK  164  A    between atoms: _412  and  _413
REMARK  165  A    between atoms: _419  and  _421
REMARK  166  A    between atoms: _421  and  _422
REMARK  167  A    between atoms: _421  and  _424
REMARK  168  A    between atoms: _424  and  _425
REMARK  169  A    between atoms: _428  and  _430
REMARK  170  A    between atoms: _430  and  _431
REMARK  171  A    between atoms: _430  and  _433
REMARK  172  A    between atoms: _433  and  _434
REMARK  173  A    between atoms: _444  and  _446
REMARK  174  A    between atoms: _446  and  _447
REMARK  175  A    between atoms: _446  and  _449
REMARK  176  A    between atoms: _449  and  _450
REMARK  177  A    between atoms: _450  and  _451
REMARK  178  A    between atoms: _453  and  _455
REMARK  179  A    between atoms: _455  and  _456
REMARK  180  A    between atoms: _455  and  _458
REMARK  181  A    between atoms: _458  and  _459
REMARK  182  A    between atoms: _464  and  _466
REMARK  183  A    between atoms: _466  and  _467
REMARK  184  A    between atoms: _470  and  _471
REMARK  185  A    between atoms: _476  and  _478
REMARK  186  A    between atoms: _478  and  _479
REMARK  187  A    between atoms: _478  and  _481
REMARK  188  A    between atoms: _481  and  _482
REMARK  189  A    between atoms: _492  and  _494
REMARK  190  A    between atoms: _494  and  _495
REMARK  191  A    between atoms: _499  and  _500
REMARK  192  A    between atoms: _505  and  _507
REMARK  193  A    between atoms: _507  and  _508
REMARK  194  A    between atoms: _507  and  _510
REMARK  195  A    between atoms: _510  and  _511
REMARK  196  A    between atoms: _511  and  _512
REMARK  197  A    between atoms: _517  and  _519
REMARK  198  A    between atoms: _519  and  _520
REMARK  199  A    between atoms: _522  and  _524
REMARK  200  A    between atoms: _524  and  _525
REMARK  201  A    between atoms: _527  and  _529
REMARK  202  A    between atoms: _529  and  _530
REMARK  203  A    between atoms: _529  and  _532
REMARK  204  A    between atoms: _532  and  _533
REMARK  205  A    between atoms: _543  and  _545
REMARK  206  A    between atoms: _545  and  _546
REMARK  207  A    between atoms: _545  and  _548
REMARK  208  A    between atoms: _548  and  _549
REMARK  209  A    between atoms: _552  and  _554
REMARK  210  A    between atoms: _554  and  _555
REMARK  211  A    between atoms: _554  and  _557
REMARK  212  A    between atoms: _557  and  _558
REMARK  213  A    between atoms: _561  and  _563
REMARK  214  A    between atoms: _563  and  _564
REMARK  215  A    between atoms: _563  and  _566
REMARK  216  A    between atoms: _566  and  _567
REMARK  217  A    between atoms: _567  and  _568
REMARK  218  A    between atoms: _568  and  _569
REMARK  219  A    between atoms: _578  and  _580
REMARK  220  A    between atoms: _580  and  _581
REMARK  221  A    between atoms: _580  and  _583
REMARK  222  A    between atoms: _583  and  _584
REMARK  223  A    between atoms: _594  and  _596
REMARK  224  A    between atoms: _596  and  _597
REMARK  225  A    between atoms: _600  and  _602
REMARK  226  A    between atoms: _602  and  _603
REMARK  227  A    between atoms: _602  and  _605
REMARK  228  A    between atoms: _605  and  _606
REMARK  229  A    between atoms: _606  and  _607
REMARK  230  A    between atoms: _610  and  _612
REMARK  231  A    between atoms: _612  and  _613
REMARK  232  A    between atoms: _615  and  _617
REMARK  233  A    between atoms: _617  and  _618
REMARK  234  A    between atoms: _617  and  _620
REMARK  235  A    between atoms: _620  and  _621
REMARK  236  A    between atoms: _626  and  _628
REMARK  237  A    between atoms: _628  and  _629
REMARK  238  A    between atoms: _632  and  _634
REMARK  239  A    between atoms: _634  and  _635
REMARK  240  A    between atoms: _634  and  _637
REMARK  241  A    between atoms: _637  and  _638
REMARK  242  A    between atoms: _641  and  _643
REMARK  243  A    between atoms: _643  and  _644
REMARK  244  A    between atoms: _643  and  _646
REMARK  245  A    between atoms: _646  and  _647
REMARK  246  A    between atoms: _653  and  _655
REMARK  247  A    between atoms: _655  and  _656
REMARK  248  A    between atoms: _655  and  _658
REMARK  249  A    between atoms: _658  and  _659
REMARK  250  A    between atoms: _659  and  _660
REMARK  251  A    between atoms: _663  and  _665
REMARK  252  A    between atoms: _665  and  _666
REMARK  253  A    between atoms: _665  and  _668
REMARK  254  A    between atoms: _668  and  _669
REMARK  255  A    between atoms: _669  and  _670
REMARK  256  A    between atoms: _670  and  _671
REMARK                            x       y       z     vdW  Elec       q    Type
REMARK                         _______ _______ _______ _____ _____    ______ ____
ROOT
ATOM      1  O   HOH     1       0.095   1.435  19.791  0.00  0.00    +0.000 OA
ENDROOT
TORSDOF 0
REMARK  Name = ../refined-set-2016/3k00/3k00_pocket.pdb
REMARK  256 active torsions:
REMARK  status: ('A' for Active; 'I' for Inactive)
REMARK    1  A    between atoms: _1  and  _3
REMARK    2  A    between atoms: _3  and  _4
REMARK    3  A    between atoms: _3  and  _6
REMARK    4  A    between atoms: _6  and  _7
REMARK    5  A    between atoms: _10  and  _12
REMARK    6  A    between atoms: _12  and  _13
REMARK    7  A    between atoms: _12  and  _15
REMARK    8  A    between atoms: _15  and  _16
REMARK    9  A    between atoms: _19  and  _21
REMARK   10  A    between atoms: _21  and  _22
REMARK   11  A    between atoms: _21  and  _24
REMARK   12  A    between atoms: _24  and  _25
REMARK   13  A    between atoms: _27  and  _29
REMARK   14  A    between atoms: _29  and  _30
REMARK   15  A    between atoms: _29  and  _32
REMARK   16  A    between atoms: _32  and  _33
REMARK   17  A    between atoms: _38  and  _40
REMARK   18  A    between atoms: _40  and  _41
REMARK   19  A    between atoms: _40  and  _43
REMARK   20  A    between atoms: _43  and  _44
REMARK   21  A    between atoms: _44  and  _45
REMARK   22  A    between atoms: _48  and  _50
REMARK   23  A    between atoms: _50  and  _51
REMARK   24  A    between atoms: _54  and  _56
REMARK   25  A    between atoms: _56  and  _57
REMARK   26  A    between atoms: _56  and  _59
REMARK   27  A    between atoms: _59  and  _60
REMARK   28  A    between atoms: _60  and  _61
REMARK   29  A    between atoms: _64  and  _66
REMARK   30  A    between atoms: _66  and  _67
REMARK   31  A    between atoms: _66  and  _69
REMARK   32  A    between atoms: _69  and  _70
REMARK   33  A    between atoms: _70  and  _71
REMARK   34  A    between atoms: _71  and  _72
REMARK   35  A    between atoms: _72  and  _73
REMARK   36  A    between atoms: _77  and  _79
REMARK   37  A    between atoms: _79  and  _80
REMARK   38  A    between atoms: _79  and  _82
REMARK   39  A    between atoms: _82  and  _83
REMARK   40  A    between atoms: _88  and  _89
REMARK   41  A    between atoms: _91  and  _93
REMARK   42  A    between atoms: _93  and  _94
REMARK   43  A    between atoms: _93  and  _96
REMARK   44  A    between atoms: _96  and  _97
REMARK   45  A    between atoms: _102  and  _104
REMARK   46  A    between atoms: _104  and  _105
REMARK   47  A    between atoms: _104  and  _107
REMARK   48  A    between atoms: _111  and  _112
REMARK   49  A    between atoms: _117  and  _119
REMARK   50  A    between atoms: _119  and  _120
REMARK   51  A    between atoms: _119  and  _122
REMARK   52  A    between atoms: _122  and  _123
REMARK   53  A    between atoms: _129  and  _131
REMARK   54  A    between atoms: _131  and  _132
REMARK   55  A    between atoms: _134  and  _136
REMARK   56  A    between atoms: _136  and  _137
REMARK   57  A    between atoms: _136  and  _139
REMARK   58  A    between atoms: _139  and  _140
REMARK   59  A    between atoms: _140  and  _141
REMARK   60  A    between atoms: _144  and  _146
REMARK   61  A    between atoms: _146  and  _147
REMARK   62  A    between atoms: _150  and  _152
REMARK   63  A    between atoms: _152  and  _153
REMARK   64  A    between atoms: _152  and  _155
REMARK   65  A    between atoms: _155  and  _156
REMARK   66  A    between atoms: _161  and  _163
REMARK   67  A    between atoms: _163  and  _164
REMARK   68  A    between atoms: _167  and  _169
REMARK   69  A    between atoms: _169  and  _170
REMARK   70  A    between atoms: _169  and  _172
REMARK   71  A    between atoms: _172  and  _173
REMARK   72  A    between atoms: _173  and  _174
REMARK   73  A    between atoms: _174  and  _175
REMARK   74  A    between atoms: _175  and  _176
REMARK   75  A    between atoms: _180  and  _182
REMARK   76  A    between atoms: _182  and  _183
REMARK   77  A    between atoms: _182  and  _185
REMARK   78  A    between atoms: _185  and  _186
REMARK   79  A    between atoms: _186  and  _187
REMARK   80  A    between atoms: _187  and  _188
REMARK   81  A    between atoms: _188  and  _189
REMARK   82  A    between atoms: _193  and  _195
REMARK   83  A    between atoms: _195  and  _196
REMARK   84  A    between atoms: _195  and  _198
REMARK   85  A    between atoms: _198  and  _199
REMARK   86  A    between atoms: _199  and  _200
REMARK   87  A    between atoms: _200  and  _201
REMARK   88  A    between atoms: _210  and  _212
REMARK   89  A    between atoms: _212  and  _213
REMARK   90  A    between atoms: _212  and  _215
REMARK   91  A    between atoms: _215  and  _216
REMARK   92  A    between atoms: _216  and  _217
REMARK   93  A    between atoms: _220  and  _222
REMARK   94  A    between atoms: _222  and  _223
REMARK   95  A    between atoms: _222  and  _225
REMARK   96  A    between atoms: _228  and  _230
REMARK   97  A    between atoms: _230  and  _231
REMARK   98  A    between atoms: _234  and  _236
REMARK   99  A    between atoms: _236  and  _237
REMARK  100  A    between atoms: _236  and  _239
REMARK  101  A    between atoms: _239  and  _240
REMARK  102  A    between atoms: _250  and  _252
REMARK  103  A    between atoms: _252  and  _253
REMARK  104  A    between atoms: _252  and  _255
REMARK  105  A    between atoms: _258  and  _260
REMARK  106  A    between atoms: _260  and  _261
REMARK  107  A    between atoms: _260  and  _263
REMARK  108  A    between atoms: _263  and  _264
REMARK  109  A    between atoms: _267  and  _269
REMARK  110  A    between atoms: _269  and  _270
REMARK  111  A    between atoms: _269  and  _272
REMARK  112  A    between atoms: _272  and  _273
REMARK  113  A    between atoms: _279  and  _281
REMARK  114  A    between atoms: _281  and  _282
REMARK  115  A    between atoms: _281  and  _284
REMARK  116  A    between atoms: _284  and  _285
REMARK  117  A    between atoms: _285  and  _286
REMARK  118  A    between atoms: _291  and  _293
REMARK  119  A    between atoms: _293  and  _294
REMARK  120  A    between atoms: _293  and  _296
REMARK  121  A    between atoms: _299  and  _301
REMARK  122  A    between atoms: _301  and  _302
REMARK  123  A    between atoms: _301  and  _304
REMARK  124  A    between atoms: _304  and  _305
REMARK  125  A    between atoms: _308  and  _310
REMARK  126  A    between atoms: _310  and  _311
REMARK  127  A    between atoms: _310  and  _313
REMARK  128  A    between atoms: _313  and  _314
REMARK  129  A    between atoms: _317  and  _319
REMARK  130  A    between atoms: _319  and  _320
REMARK  131  A    between atoms: _319  and  _322
REMARK  132  A    between atoms: _322  and  _323
REMARK  133  A    between atoms: _326  and  _328
REMARK  134  A    between atoms: _328  and  _329
REMARK  135  A    between atoms: _328  and  _331
REMARK  136  A    between atoms: _331  and  _332
REMARK  137  A    between atoms: _335  and  _337
REMARK  138  A    between atoms: _337  and  _338
REMARK  139  A    between atoms: _337  and  _340
REMARK  140  A    between atoms: _340  and  _341
REMARK  141  A    between atoms: _341  and  _342
REMARK  142  A    between atoms: _342  and  _343
REMARK  143  A    between atoms: _352  and  _354
REMARK  144  A    between atoms: _354  and  _355
REMARK  145  A    between atoms: _354  and  _357
REMARK  146  A    between atoms: _357  and  _358
REMARK  147  A    between atoms: _361  and  _363
REMARK  148  A    between atoms: _363  and  _364
REMARK  149  A    between atoms: _363  and  _366
REMARK  150  A    between atoms: _366  and  _367
REMARK  151  A    between atoms: _371  and  _372
REMARK  152  A    between atoms: _377  and  _379
REMARK  153  A    between atoms: _379  and  _380
REMARK  154  A    between atoms: _379  and  _382
REMARK  155  A    between atoms: _382  and  _383
REMARK  156  A    between atoms: _388  and  _389
REMARK  157  A    between atoms: _391  and  _393
REMARK  158  A    between atoms: _393  and  _394
REMARK  159  A    between atoms: _393  and  _396
REMARK  160  A    between atoms: _396  and  _397
REMARK  161  A    between atoms: _407  and  _409
REMARK  162  A    between atoms: _409  and  _410
REMARK  163  A    between atoms: _409  and  _412
REMARK  164  A    between atoms: _412  and  _413
REMARK  165  A    between atoms: _419  and  _421
REMARK  166  A    between atoms: _421  and  _422
REMARK  167  A    between atoms: _421  and  _424
REMARK  168  A    between atoms: _424  and  _425
REMARK  169  A    between atoms: _428  and  _430
REMARK  170  A    between atoms: _430  and  _431
REMARK  171  A    between atoms: _430  and  _433
REMARK  172  A    between atoms: _433  and  _434
REMARK  173  A    between atoms: _444  and  _446
REMARK  174  A    between atoms: _446  and  _447
REMARK  175  A    between atoms: _446  and  _449
REMARK  176  A    between atoms: _449  and  _450
REMARK  177  A    between atoms: _450  and  _451
REMARK  178  A    between atoms: _453  and  _455
REMARK  179  A    between atoms: _455  and  _456
REMARK  180  A    between atoms: _455  and  _458
REMARK  181  A    between atoms: _458  and  _459
REMARK  182  A    between atoms: _464  and  _466
REMARK  183  A    between atoms: _466  and  _467
REMARK  184  A    between atoms: _470  and  _471
REMARK  185  A    between atoms: _476  and  _478
REMARK  186  A    between atoms: _478  and  _479
REMARK  187  A    between atoms: _478  and  _481
REMARK  188  A    between atoms: _481  and  _482
REMARK  189  A    between atoms: _492  and  _494
REMARK  190  A    between atoms: _494  and  _495
REMARK  191  A    between atoms: _499  and  _500
REMARK  192  A    between atoms: _505  and  _507
REMARK  193  A    between atoms: _507  and  _508
REMARK  194  A    between atoms: _507  and  _510
REMARK  195  A    between atoms: _510  and  _511
REMARK  196  A    between atoms: _511  and  _512
REMARK  197  A    between atoms: _517  and  _519
REMARK  198  A    between atoms: _519  and  _520
REMARK  199  A    between atoms: _522  and  _524
REMARK  200  A    between atoms: _524  and  _525
REMARK  201  A    between atoms: _527  and  _529
REMARK  202  A    between atoms: _529  and  _530
REMARK  203  A    between atoms: _529  and  _532
REMARK  204  A    between atoms: _532  and  _533
REMARK  205  A    between atoms: _543  and  _545
REMARK  206  A    between atoms: _545  and  _546
REMARK  207  A    between atoms: _545  and  _548
REMARK  208  A    between atoms: _548  and  _549
REMARK  209  A    between atoms: _552  and  _554
REMARK  210  A    between atoms: _554  and  _555
REMARK  211  A    between atoms: _554  and  _557
REMARK  212  A    between atoms: _557  and  _558
REMARK  213  A    between atoms: _561  and  _563
REMARK  214  A    between atoms: _563  and  _564
REMARK  215  A    between atoms: _563  and  _566
REMARK  216  A    between atoms: _566  and  _567
REMARK  217  A    between atoms: _567  and  _568
REMARK  218  A    between atoms: _568  and  _569
REMARK  219  A    between atoms: _578  and  _580
REMARK  220  A    between atoms: _580  and  _581
REMARK  221  A    between atoms: _580  and  _583
REMARK  222  A    between atoms: _583  and  _584
REMARK  223  A    between atoms: _594  and  _596
REMARK  224  A    between atoms: _596  and  _597
REMARK  225  A    between atoms: _600  and  _602
REMARK  226  A    between atoms: _602  and  _603
REMARK  227  A    between atoms: _602  and  _605
REMARK  228  A    between atoms: _605  and  _606
REMARK  229  A    between atoms: _606  and  _607
REMARK  230  A    between atoms: _610  and  _612
REMARK  231  A    between atoms: _612  and  _613
REMARK  232  A    between atoms: _615  and  _617
REMARK  233  A    between atoms: _617  and  _618
REMARK  234  A    between atoms: _617  and  _620
REMARK  235  A    between atoms: _620  and  _621
REMARK  236  A    between atoms: _626  and  _628
REMARK  237  A    between atoms: _628  and  _629
REMARK  238  A    between atoms: _632  and  _634
REMARK  239  A    between atoms: _634  and  _635
REMARK  240  A    between atoms: _634  and  _637
REMARK  241  A    between atoms: _637  and  _638
REMARK  242  A    between atoms: _641  and  _643
REMARK  243  A    between atoms: _643  and  _644
REMARK  244  A    between atoms: _643  and  _646
REMARK  245  A    between atoms: _646  and  _647
REMARK  246  A    between atoms: _653  and  _655
REMARK  247  A    between atoms: _655  and  _656
REMARK  248  A    between atoms: _655  and  _658
REMARK  249  A    between atoms: _658  and  _659
REMARK  250  A    between atoms: _659  and  _660
REMARK  251  A    between atoms: _663  and  _665
REMARK  252  A    between atoms: _665  and  _666
REMARK  253  A    between atoms: _665  and  _668
REMARK  254  A    between atoms: _668  and  _669
REMARK  255  A    between atoms: _669  and  _670
REMARK  256  A    between atoms: _670  and  _671
REMARK                            x       y       z     vdW  Elec       q    Type
REMARK                         _______ _______ _______ _____ _____    ______ ____
ROOT
ATOM      1  O   HOH     1      -7.639 -15.398  24.118  0.00  0.00    +0.000 OA
ENDROOT
TORSDOF 0
REMARK  Name = ../refined-set-2016/3k00/3k00_pocket.pdb
REMARK  256 active torsions:
REMARK  status: ('A' for Active; 'I' for Inactive)
REMARK    1  A    between atoms: _1  and  _3
REMARK    2  A    between atoms: _3  and  _4
REMARK    3  A    between atoms: _3  and  _6
REMARK    4  A    between atoms: _6  and  _7
REMARK    5  A    between atoms: _10  and  _12
REMARK    6  A    between atoms: _12  and  _13
REMARK    7  A    between atoms: _12  and  _15
REMARK    8  A    between atoms: _15  and  _16
REMARK    9  A    between atoms: _19  and  _21
REMARK   10  A    between atoms: _21  and  _22
REMARK   11  A    between atoms: _21  and  _24
REMARK   12  A    between atoms: _24  and  _25
REMARK   13  A    between atoms: _27  and  _29
REMARK   14  A    between atoms: _29  and  _30
REMARK   15  A    between atoms: _29  and  _32
REMARK   16  A    between atoms: _32  and  _33
REMARK   17  A    between atoms: _38  and  _40
REMARK   18  A    between atoms: _40  and  _41
REMARK   19  A    between atoms: _40  and  _43
REMARK   20  A    between atoms: _43  and  _44
REMARK   21  A    between atoms: _44  and  _45
REMARK   22  A    between atoms: _48  and  _50
REMARK   23  A    between atoms: _50  and  _51
REMARK   24  A    between atoms: _54  and  _56
REMARK   25  A    between atoms: _56  and  _57
REMARK   26  A    between atoms: _56  and  _59
REMARK   27  A    between atoms: _59  and  _60
REMARK   28  A    between atoms: _60  and  _61
REMARK   29  A    between atoms: _64  and  _66
REMARK   30  A    between atoms: _66  and  _67
REMARK   31  A    between atoms: _66  and  _69
REMARK   32  A    between atoms: _69  and  _70
REMARK   33  A    between atoms: _70  and  _71
REMARK   34  A    between atoms: _71  and  _72
REMARK   35  A    between atoms: _72  and  _73
REMARK   36  A    between atoms: _77  and  _79
REMARK   37  A    between atoms: _79  and  _80
REMARK   38  A    between atoms: _79  and  _82
REMARK   39  A    between atoms: _82  and  _83
REMARK   40  A    between atoms: _88  and  _89
REMARK   41  A    between atoms: _91  and  _93
REMARK   42  A    between atoms: _93  and  _94
REMARK   43  A    between atoms: _93  and  _96
REMARK   44  A    between atoms: _96  and  _97
REMARK   45  A    between atoms: _102  and  _104
REMARK   46  A    between atoms: _104  and  _105
REMARK   47  A    between atoms: _104  and  _107
REMARK   48  A    between atoms: _111  and  _112
REMARK   49  A    between atoms: _117  and  _119
REMARK   50  A    between atoms: _119  and  _120
REMARK   51  A    between atoms: _119  and  _122
REMARK   52  A    between atoms: _122  and  _123
REMARK   53  A    between atoms: _129  and  _131
REMARK   54  A    between atoms: _131  and  _132
REMARK   55  A    between atoms: _134  and  _136
REMARK   56  A    between atoms: _136  and  _137
REMARK   57  A    between atoms: _136  and  _139
REMARK   58  A    between atoms: _139  and  _140
REMARK   59  A    between atoms: _140  and  _141
REMARK   60  A    between atoms: _144  and  _146
REMARK   61  A    between atoms: _146  and  _147
REMARK   62  A    between atoms: _150  and  _152
REMARK   63  A    between atoms: _152  and  _153
REMARK   64  A    between atoms: _152  and  _155
REMARK   65  A    between atoms: _155  and  _156
REMARK   66  A    between atoms: _161  and  _163
REMARK   67  A    between atoms: _163  and  _164
REMARK   68  A    between atoms: _167  and  _169
REMARK   69  A    between atoms: _169  and  _170
REMARK   70  A    between atoms: _169  and  _172
REMARK   71  A    between atoms: _172  and  _173
REMARK   72  A    between atoms: _173  and  _174
REMARK   73  A    between atoms: _174  and  _175
REMARK   74  A    between atoms: _175  and  _176
REMARK   75  A    between atoms: _180  and  _182
REMARK   76  A    between atoms: _182  and  _183
REMARK   77  A    between atoms: _182  and  _185
REMARK   78  A    between atoms: _185  and  _186
REMARK   79  A    between atoms: _186  and  _187
REMARK   80  A    between atoms: _187  and  _188
REMARK   81  A    between atoms: _188  and  _189
REMARK   82  A    between atoms: _193  and  _195
REMARK   83  A    between atoms: _195  and  _196
REMARK   84  A    between atoms: _195  and  _198
REMARK   85  A    between atoms: _198  and  _199
REMARK   86  A    between atoms: _199  and  _200
REMARK   87  A    between atoms: _200  and  _201
REMARK   88  A    between atoms: _210  and  _212
REMARK   89  A    between atoms: _212  and  _213
REMARK   90  A    between atoms: _212  and  _215
REMARK   91  A    between atoms: _215  and  _216
REMARK   92  A    between atoms: _216  and  _217
REMARK   93  A    between atoms: _220  and  _222
REMARK   94  A    between atoms: _222  and  _223
REMARK   95  A    between atoms: _222  and  _225
REMARK   96  A    between atoms: _228  and  _230
REMARK   97  A    between atoms: _230  and  _231
REMARK   98  A    between atoms: _234  and  _236
REMARK   99  A    between atoms: _236  and  _237
REMARK  100  A    between atoms: _236  and  _239
REMARK  101  A    between atoms: _239  and  _240
REMARK  102  A    between atoms: _250  and  _252
REMARK  103  A    between atoms: _252  and  _253
REMARK  104  A    between atoms: _252  and  _255
REMARK  105  A    between atoms: _258  and  _260
REMARK  106  A    between atoms: _260  and  _261
REMARK  107  A    between atoms: _260  and  _263
REMARK  108  A    between atoms: _263  and  _264
REMARK  109  A    between atoms: _267  and  _269
REMARK  110  A    between atoms: _269  and  _270
REMARK  111  A    between atoms: _269  and  _272
REMARK  112  A    between atoms: _272  and  _273
REMARK  113  A    between atoms: _279  and  _281
REMARK  114  A    between atoms: _281  and  _282
REMARK  115  A    between atoms: _281  and  _284
REMARK  116  A    between atoms: _284  and  _285
REMARK  117  A    between atoms: _285  and  _286
REMARK  118  A    between atoms: _291  and  _293
REMARK  119  A    between atoms: _293  and  _294
REMARK  120  A    between atoms: _293  and  _296
REMARK  121  A    between atoms: _299  and  _301
REMARK  122  A    between atoms: _301  and  _302
REMARK  123  A    between atoms: _301  and  _304
REMARK  124  A    between atoms: _304  and  _305
REMARK  125  A    between atoms: _308  and  _310
REMARK  126  A    between atoms: _310  and  _311
REMARK  127  A    between atoms: _310  and  _313
REMARK  128  A    between atoms: _313  and  _314
REMARK  129  A    between atoms: _317  and  _319
REMARK  130  A    between atoms: _319  and  _320
REMARK  131  A    between atoms: _319  and  _322
REMARK  132  A    between atoms: _322  and  _323
REMARK  133  A    between atoms: _326  and  _328
REMARK  134  A    between atoms: _328  and  _329
REMARK  135  A    between atoms: _328  and  _331
REMARK  136  A    between atoms: _331  and  _332
REMARK  137  A    between atoms: _335  and  _337
REMARK  138  A    between atoms: _337  and  _338
REMARK  139  A    between atoms: _337  and  _340
REMARK  140  A    between atoms: _340  and  _341
REMARK  141  A    between atoms: _341  and  _342
REMARK  142  A    between atoms: _342  and  _343
REMARK  143  A    between atoms: _352  and  _354
REMARK  144  A    between atoms: _354  and  _355
REMARK  145  A    between atoms: _354  and  _357
REMARK  146  A    between atoms: _357  and  _358
REMARK  147  A    between atoms: _361  and  _363
REMARK  148  A    between atoms: _363  and  _364
REMARK  149  A    between atoms: _363  and  _366
REMARK  150  A    between atoms: _366  and  _367
REMARK  151  A    between atoms: _371  and  _372
REMARK  152  A    between atoms: _377  and  _379
REMARK  153  A    between atoms: _379  and  _380
REMARK  154  A    between atoms: _379  and  _382
REMARK  155  A    between atoms: _382  and  _383
REMARK  156  A    between atoms: _388  and  _389
REMARK  157  A    between atoms: _391  and  _393
REMARK  158  A    between atoms: _393  and  _394
REMARK  159  A    between atoms: _393  and  _396
REMARK  160  A    between atoms: _396  and  _397
REMARK  161  A    between atoms: _407  and  _409
REMARK  162  A    between atoms: _409  and  _410
REMARK  163  A    between atoms: _409  and  _412
REMARK  164  A    between atoms: _412  and  _413
REMARK  165  A    between atoms: _419  and  _421
REMARK  166  A    between atoms: _421  and  _422
REMARK  167  A    between atoms: _421  and  _424
REMARK  168  A    between atoms: _424  and  _425
REMARK  169  A    between atoms: _428  and  _430
REMARK  170  A    between atoms: _430  and  _431
REMARK  171  A    between atoms: _430  and  _433
REMARK  172  A    between atoms: _433  and  _434
REMARK  173  A    between atoms: _444  and  _446
REMARK  174  A    between atoms: _446  and  _447
REMARK  175  A    between atoms: _446  and  _449
REMARK  176  A    between atoms: _449  and  _450
REMARK  177  A    between atoms: _450  and  _451
REMARK  178  A    between atoms: _453  and  _455
REMARK  179  A    between atoms: _455  and  _456
REMARK  180  A    between atoms: _455  and  _458
REMARK  181  A    between atoms: _458  and  _459
REMARK  182  A    between atoms: _464  and  _466
REMARK  183  A    between atoms: _466  and  _467
REMARK  184  A    between atoms: _470  and  _471
REMARK  185  A    between atoms: _476  and  _478
REMARK  186  A    between atoms: _478  and  _479
REMARK  187  A    between atoms: _478  and  _481
REMARK  188  A    between atoms: _481  and  _482
REMARK  189  A    between atoms: _492  and  _494
REMARK  190  A    between atoms: _494  and  _495
REMARK  191  A    between atoms: _499  and  _500
REMARK  192  A    between atoms: _505  and  _507
REMARK  193  A    between atoms: _507  and  _508
REMARK  194  A    between atoms: _507  and  _510
REMARK  195  A    between atoms: _510  and  _511
REMARK  196  A    between atoms: _511  and  _512
REMARK  197  A    between atoms: _517  and  _519
REMARK  198  A    between atoms: _519  and  _520
REMARK  199  A    between atoms: _522  and  _524
REMARK  200  A    between atoms: _524  and  _525
REMARK  201  A    between atoms: _527  and  _529
REMARK  202  A    between atoms: _529  and  _530
REMARK  203  A    between atoms: _529  and  _532
REMARK  204  A    between atoms: _532  and  _533
REMARK  205  A    between atoms: _543  and  _545
REMARK  206  A    between atoms: _545  and  _546
REMARK  207  A    between atoms: _545  and  _548
REMARK  208  A    between atoms: _548  and  _549
REMARK  209  A    between atoms: _552  and  _554
REMARK  210  A    between atoms: _554  and  _555
REMARK  211  A    between atoms: _554  and  _557
REMARK  212  A    between atoms: _557  and  _558
REMARK  213  A    between atoms: _561  and  _563
REMARK  214  A    between atoms: _563  and  _564
REMARK  215  A    between atoms: _563  and  _566
REMARK  216  A    between atoms: _566  and  _567
REMARK  217  A    between atoms: _567  and  _568
REMARK  218  A    between atoms: _568  and  _569
REMARK  219  A    between atoms: _578  and  _580
REMARK  220  A    between atoms: _580  and  _581
REMARK  221  A    between atoms: _580  and  _583
REMARK  222  A    between atoms: _583  and  _584
REMARK  223  A    between atoms: _594  and  _596
REMARK  224  A    between atoms: _596  and  _597
REMARK  225  A    between atoms: _600  and  _602
REMARK  226  A    between atoms: _602  and  _603
REMARK  227  A    between atoms: _602  and  _605
REMARK  228  A    between atoms: _605  and  _606
REMARK  229  A    between atoms: _606  and  _607
REMARK  230  A    between atoms: _610  and  _612
REMARK  231  A    between atoms: _612  and  _613
REMARK  232  A    between atoms: _615  and  _617
REMARK  233  A    between atoms: _617  and  _618
REMARK  234  A    between atoms: _617  and  _620
REMARK  235  A    between atoms: _620  and  _621
REMARK  236  A    between atoms: _626  and  _628
REMARK  237  A    between atoms: _628  and  _629
REMARK  238  A    between atoms: _632  and  _634
REMARK  239  A    between atoms: _634  and  _635
REMARK  240  A    between atoms: _634  and  _637
REMARK  241  A    between atoms: _637  and  _638
REMARK  242  A    between atoms: _641  and  _643
REMARK  243  A    between atoms: _643  and  _644
REMARK  244  A    between atoms: _643  and  _646
REMARK  245  A    between atoms: _646  and  _647
REMARK  246  A    between atoms: _653  and  _655
REMARK  247  A    between atoms: _655  and  _656
REMARK  248  A    between atoms: _655  and  _658
REMARK  249  A    between atoms: _658  and  _659
REMARK  250  A    between atoms: _659  and  _660
REMARK  251  A    between atoms: _663  and  _665
REMARK  252  A    between atoms: _665  and  _666
REMARK  253  A    between atoms: _665  and  _668
REMARK  254  A    between atoms: _668  and  _669
REMARK  255  A    between atoms: _669  and  _670
REMARK  256  A    between atoms: _670  and  _671
REMARK                            x       y       z     vdW  Elec       q    Type
REMARK                         _______ _______ _______ _____ _____    ______ ____
ROOT
ATOM      1  O   HOH     1      -5.299 -12.423  16.288  0.00  0.00    +0.000 OA
ENDROOT
TORSDOF 0
REMARK  Name = ../refined-set-2016/3k00/3k00_pocket.pdb
REMARK  256 active torsions:
REMARK  status: ('A' for Active; 'I' for Inactive)
REMARK    1  A    between atoms: _1  and  _3
REMARK    2  A    between atoms: _3  and  _4
REMARK    3  A    between atoms: _3  and  _6
REMARK    4  A    between atoms: _6  and  _7
REMARK    5  A    between atoms: _10  and  _12
REMARK    6  A    between atoms: _12  and  _13
REMARK    7  A    between atoms: _12  and  _15
REMARK    8  A    between atoms: _15  and  _16
REMARK    9  A    between atoms: _19  and  _21
REMARK   10  A    between atoms: _21  and  _22
REMARK   11  A    between atoms: _21  and  _24
REMARK   12  A    between atoms: _24  and  _25
REMARK   13  A    between atoms: _27  and  _29
REMARK   14  A    between atoms: _29  and  _30
REMARK   15  A    between atoms: _29  and  _32
REMARK   16  A    between atoms: _32  and  _33
REMARK   17  A    between atoms: _38  and  _40
REMARK   18  A    between atoms: _40  and  _41
REMARK   19  A    between atoms: _40  and  _43
REMARK   20  A    between atoms: _43  and  _44
REMARK   21  A    between atoms: _44  and  _45
REMARK   22  A    between atoms: _48  and  _50
REMARK   23  A    between atoms: _50  and  _51
REMARK   24  A    between atoms: _54  and  _56
REMARK   25  A    between atoms: _56  and  _57
REMARK   26  A    between atoms: _56  and  _59
REMARK   27  A    between atoms: _59  and  _60
REMARK   28  A    between atoms: _60  and  _61
REMARK   29  A    between atoms: _64  and  _66
REMARK   30  A    between atoms: _66  and  _67
REMARK   31  A    between atoms: _66  and  _69
REMARK   32  A    between atoms: _69  and  _70
REMARK   33  A    between atoms: _70  and  _71
REMARK   34  A    between atoms: _71  and  _72
REMARK   35  A    between atoms: _72  and  _73
REMARK   36  A    between atoms: _77  and  _79
REMARK   37  A    between atoms: _79  and  _80
REMARK   38  A    between atoms: _79  and  _82
REMARK   39  A    between atoms: _82  and  _83
REMARK   40  A    between atoms: _88  and  _89
REMARK   41  A    between atoms: _91  and  _93
REMARK   42  A    between atoms: _93  and  _94
REMARK   43  A    between atoms: _93  and  _96
REMARK   44  A    between atoms: _96  and  _97
REMARK   45  A    between atoms: _102  and  _104
REMARK   46  A    between atoms: _104  and  _105
REMARK   47  A    between atoms: _104  and  _107
REMARK   48  A    between atoms: _111  and  _112
REMARK   49  A    between atoms: _117  and  _119
REMARK   50  A    between atoms: _119  and  _120
REMARK   51  A    between atoms: _119  and  _122
REMARK   52  A    between atoms: _122  and  _123
REMARK   53  A    between atoms: _129  and  _131
REMARK   54  A    between atoms: _131  and  _132
REMARK   55  A    between atoms: _134  and  _136
REMARK   56  A    between atoms: _136  and  _137
REMARK   57  A    between atoms: _136  and  _139
REMARK   58  A    between atoms: _139  and  _140
REMARK   59  A    between atoms: _140  and  _141
REMARK   60  A    between atoms: _144  and  _146
REMARK   61  A    between atoms: _146  and  _147
REMARK   62  A    between atoms: _150  and  _152
REMARK   63  A    between atoms: _152  and  _153
REMARK   64  A    between atoms: _152  and  _155
REMARK   65  A    between atoms: _155  and  _156
REMARK   66  A    between atoms: _161  and  _163
REMARK   67  A    between atoms: _163  and  _164
REMARK   68  A    between atoms: _167  and  _169
REMARK   69  A    between atoms: _169  and  _170
REMARK   70  A    between atoms: _169  and  _172
REMARK   71  A    between atoms: _172  and  _173
REMARK   72  A    between atoms: _173  and  _174
REMARK   73  A    between atoms: _174  and  _175
REMARK   74  A    between atoms: _175  and  _176
REMARK   75  A    between atoms: _180  and  _182
REMARK   76  A    between atoms: _182  and  _183
REMARK   77  A    between atoms: _182  and  _185
REMARK   78  A    between atoms: _185  and  _186
REMARK   79  A    between atoms: _186  and  _187
REMARK   80  A    between atoms: _187  and  _188
REMARK   81  A    between atoms: _188  and  _189
REMARK   82  A    between atoms: _193  and  _195
REMARK   83  A    between atoms: _195  and  _196
REMARK   84  A    between atoms: _195  and  _198
REMARK   85  A    between atoms: _198  and  _199
REMARK   86  A    between atoms: _199  and  _200
REMARK   87  A    between atoms: _200  and  _201
REMARK   88  A    between atoms: _210  and  _212
REMARK   89  A    between atoms: _212  and  _213
REMARK   90  A    between atoms: _212  and  _215
REMARK   91  A    between atoms: _215  and  _216
REMARK   92  A    between atoms: _216  and  _217
REMARK   93  A    between atoms: _220  and  _222
REMARK   94  A    between atoms: _222  and  _223
REMARK   95  A    between atoms: _222  and  _225
REMARK   96  A    between atoms: _228  and  _230
REMARK   97  A    between atoms: _230  and  _231
REMARK   98  A    between atoms: _234  and  _236
REMARK   99  A    between atoms: _236  and  _237
REMARK  100  A    between atoms: _236  and  _239
REMARK  101  A    between atoms: _239  and  _240
REMARK  102  A    between atoms: _250  and  _252
REMARK  103  A    between atoms: _252  and  _253
REMARK  104  A    between atoms: _252  and  _255
REMARK  105  A    between atoms: _258  and  _260
REMARK  106  A    between atoms: _260  and  _261
REMARK  107  A    between atoms: _260  and  _263
REMARK  108  A    between atoms: _263  and  _264
REMARK  109  A    between atoms: _267  and  _269
REMARK  110  A    between atoms: _269  and  _270
REMARK  111  A    between atoms: _269  and  _272
REMARK  112  A    between atoms: _272  and  _273
REMARK  113  A    between atoms: _279  and  _281
REMARK  114  A    between atoms: _281  and  _282
REMARK  115  A    between atoms: _281  and  _284
REMARK  116  A    between atoms: _284  and  _285
REMARK  117  A    between atoms: _285  and  _286
REMARK  118  A    between atoms: _291  and  _293
REMARK  119  A    between atoms: _293  and  _294
REMARK  120  A    between atoms: _293  and  _296
REMARK  121  A    between atoms: _299  and  _301
REMARK  122  A    between atoms: _301  and  _302
REMARK  123  A    between atoms: _301  and  _304
REMARK  124  A    between atoms: _304  and  _305
REMARK  125  A    between atoms: _308  and  _310
REMARK  126  A    between atoms: _310  and  _311
REMARK  127  A    between atoms: _310  and  _313
REMARK  128  A    between atoms: _313  and  _314
REMARK  129  A    between atoms: _317  and  _319
REMARK  130  A    between atoms: _319  and  _320
REMARK  131  A    between atoms: _319  and  _322
REMARK  132  A    between atoms: _322  and  _323
REMARK  133  A    between atoms: _326  and  _328
REMARK  134  A    between atoms: _328  and  _329
REMARK  135  A    between atoms: _328  and  _331
REMARK  136  A    between atoms: _331  and  _332
REMARK  137  A    between atoms: _335  and  _337
REMARK  138  A    between atoms: _337  and  _338
REMARK  139  A    between atoms: _337  and  _340
REMARK  140  A    between atoms: _340  and  _341
REMARK  141  A    between atoms: _341  and  _342
REMARK  142  A    between atoms: _342  and  _343
REMARK  143  A    between atoms: _352  and  _354
REMARK  144  A    between atoms: _354  and  _355
REMARK  145  A    between atoms: _354  and  _357
REMARK  146  A    between atoms: _357  and  _358
REMARK  147  A    between atoms: _361  and  _363
REMARK  148  A    between atoms: _363  and  _364
REMARK  149  A    between atoms: _363  and  _366
REMARK  150  A    between atoms: _366  and  _367
REMARK  151  A    between atoms: _371  and  _372
REMARK  152  A    between atoms: _377  and  _379
REMARK  153  A    between atoms: _379  and  _380
REMARK  154  A    between atoms: _379  and  _382
REMARK  155  A    between atoms: _382  and  _383
REMARK  156  A    between atoms: _388  and  _389
REMARK  157  A    between atoms: _391  and  _393
REMARK  158  A    between atoms: _393  and  _394
REMARK  159  A    between atoms: _393  and  _396
REMARK  160  A    between atoms: _396  and  _397
REMARK  161  A    between atoms: _407  and  _409
REMARK  162  A    between atoms: _409  and  _410
REMARK  163  A    between atoms: _409  and  _412
REMARK  164  A    between atoms: _412  and  _413
REMARK  165  A    between atoms: _419  and  _421
REMARK  166  A    between atoms: _421  and  _422
REMARK  167  A    between atoms: _421  and  _424
REMARK  168  A    between atoms: _424  and  _425
REMARK  169  A    between atoms: _428  and  _430
REMARK  170  A    between atoms: _430  and  _431
REMARK  171  A    between atoms: _430  and  _433
REMARK  172  A    between atoms: _433  and  _434
REMARK  173  A    between atoms: _444  and  _446
REMARK  174  A    between atoms: _446  and  _447
REMARK  175  A    between atoms: _446  and  _449
REMARK  176  A    between atoms: _449  and  _450
REMARK  177  A    between atoms: _450  and  _451
REMARK  178  A    between atoms: _453  and  _455
REMARK  179  A    between atoms: _455  and  _456
REMARK  180  A    between atoms: _455  and  _458
REMARK  181  A    between atoms: _458  and  _459
REMARK  182  A    between atoms: _464  and  _466
REMARK  183  A    between atoms: _466  and  _467
REMARK  184  A    between atoms: _470  and  _471
REMARK  185  A    between atoms: _476  and  _478
REMARK  186  A    between atoms: _478  and  _479
REMARK  187  A    between atoms: _478  and  _481
REMARK  188  A    between atoms: _481  and  _482
REMARK  189  A    between atoms: _492  and  _494
REMARK  190  A    between atoms: _494  and  _495
REMARK  191  A    between atoms: _499  and  _500
REMARK  192  A    between atoms: _505  and  _507
REMARK  193  A    between atoms: _507  and  _508
REMARK  194  A    between atoms: _507  and  _510
REMARK  195  A    between atoms: _510  and  _511
REMARK  196  A    between atoms: _511  and  _512
REMARK  197  A    between atoms: _517  and  _519
REMARK  198  A    between atoms: _519  and  _520
REMARK  199  A    between atoms: _522  and  _524
REMARK  200  A    between atoms: _524  and  _525
REMARK  201  A    between atoms: _527  and  _529
REMARK  202  A    between atoms: _529  and  _530
REMARK  203  A    between atoms: _529  and  _532
REMARK  204  A    between atoms: _532  and  _533
REMARK  205  A    between atoms: _543  and  _545
REMARK  206  A    between atoms: _545  and  _546
REMARK  207  A    between atoms: _545  and  _548
REMARK  208  A    between atoms: _548  and  _549
REMARK  209  A    between atoms: _552  and  _554
REMARK  210  A    between atoms: _554  and  _555
REMARK  211  A    between atoms: _554  and  _557
REMARK  212  A    between atoms: _557  and  _558
REMARK  213  A    between atoms: _561  and  _563
REMARK  214  A    between atoms: _563  and  _564
REMARK  215  A    between atoms: _563  and  _566
REMARK  216  A    between atoms: _566  and  _567
REMARK  217  A    between atoms: _567  and  _568
REMARK  218  A    between atoms: _568  and  _569
REMARK  219  A    between atoms: _578  and  _580
REMARK  220  A    between atoms: _580  and  _581
REMARK  221  A    between atoms: _580  and  _583
REMARK  222  A    between atoms: _583  and  _584
REMARK  223  A    between atoms: _594  and  _596
REMARK  224  A    between atoms: _596  and  _597
REMARK  225  A    between atoms: _600  and  _602
REMARK  226  A    between atoms: _602  and  _603
REMARK  227  A    between atoms: _602  and  _605
REMARK  228  A    between atoms: _605  and  _606
REMARK  229  A    between atoms: _606  and  _607
REMARK  230  A    between atoms: _610  and  _612
REMARK  231  A    between atoms: _612  and  _613
REMARK  232  A    between atoms: _615  and  _617
REMARK  233  A    between atoms: _617  and  _618
REMARK  234  A    between atoms: _617  and  _620
REMARK  235  A    between atoms: _620  and  _621
REMARK  236  A    between atoms: _626  and  _628
REMARK  237  A    between atoms: _628  and  _629
REMARK  238  A    between atoms: _632  and  _634
REMARK  239  A    between atoms: _634  and  _635
REMARK  240  A    between atoms: _634  and  _637
REMARK  241  A    between atoms: _637  and  _638
REMARK  242  A    between atoms: _641  and  _643
REMARK  243  A    between atoms: _643  and  _644
REMARK  244  A    between atoms: _643  and  _646
REMARK  245  A    between atoms: _646  and  _647
REMARK  246  A    between atoms: _653  and  _655
REMARK  247  A    between atoms: _655  and  _656
REMARK  248  A    between atoms: _655  and  _658
REMARK  249  A    between atoms: _658  and  _659
REMARK  250  A    between atoms: _659  and  _660
REMARK  251  A    between atoms: _663  and  _665
REMARK  252  A    between atoms: _665  and  _666
REMARK  253  A    between atoms: _665  and  _668
REMARK  254  A    between atoms: _668  and  _669
REMARK  255  A    between atoms: _669  and  _670
REMARK  256  A    between atoms: _670  and  _671
REMARK                            x       y       z     vdW  Elec       q    Type
REMARK                         _______ _______ _______ _____ _____    ______ ____
ROOT
ATOM      1  O   HOH     1       0.934 -12.626  28.290  0.00  0.00    +0.000 OA
ENDROOT
TORSDOF 0
REMARK  Name = ../refined-set-2016/3k00/3k00_pocket.pdb
REMARK  256 active torsions:
REMARK  status: ('A' for Active; 'I' for Inactive)
REMARK    1  A    between atoms: _1  and  _3
REMARK    2  A    between atoms: _3  and  _4
REMARK    3  A    between atoms: _3  and  _6
REMARK    4  A    between atoms: _6  and  _7
REMARK    5  A    between atoms: _10  and  _12
REMARK    6  A    between atoms: _12  and  _13
REMARK    7  A    between atoms: _12  and  _15
REMARK    8  A    between atoms: _15  and  _16
REMARK    9  A    between atoms: _19  and  _21
REMARK   10  A    between atoms: _21  and  _22
REMARK   11  A    between atoms: _21  and  _24
REMARK   12  A    between atoms: _24  and  _25
REMARK   13  A    between atoms: _27  and  _29
REMARK   14  A    between atoms: _29  and  _30
REMARK   15  A    between atoms: _29  and  _32
REMARK   16  A    between atoms: _32  and  _33
REMARK   17  A    between atoms: _38  and  _40
REMARK   18  A    between atoms: _40  and  _41
REMARK   19  A    between atoms: _40  and  _43
REMARK   20  A    between atoms: _43  and  _44
REMARK   21  A    between atoms: _44  and  _45
REMARK   22  A    between atoms: _48  and  _50
REMARK   23  A    between atoms: _50  and  _51
REMARK   24  A    between atoms: _54  and  _56
REMARK   25  A    between atoms: _56  and  _57
REMARK   26  A    between atoms: _56  and  _59
REMARK   27  A    between atoms: _59  and  _60
REMARK   28  A    between atoms: _60  and  _61
REMARK   29  A    between atoms: _64  and  _66
REMARK   30  A    between atoms: _66  and  _67
REMARK   31  A    between atoms: _66  and  _69
REMARK   32  A    between atoms: _69  and  _70
REMARK   33  A    between atoms: _70  and  _71
REMARK   34  A    between atoms: _71  and  _72
REMARK   35  A    between atoms: _72  and  _73
REMARK   36  A    between atoms: _77  and  _79
REMARK   37  A    between atoms: _79  and  _80
REMARK   38  A    between atoms: _79  and  _82
REMARK   39  A    between atoms: _82  and  _83
REMARK   40  A    between atoms: _88  and  _89
REMARK   41  A    between atoms: _91  and  _93
REMARK   42  A    between atoms: _93  and  _94
REMARK   43  A    between atoms: _93  and  _96
REMARK   44  A    between atoms: _96  and  _97
REMARK   45  A    between atoms: _102  and  _104
REMARK   46  A    between atoms: _104  and  _105
REMARK   47  A    between atoms: _104  and  _107
REMARK   48  A    between atoms: _111  and  _112
REMARK   49  A    between atoms: _117  and  _119
REMARK   50  A    between atoms: _119  and  _120
REMARK   51  A    between atoms: _119  and  _122
REMARK   52  A    between atoms: _122  and  _123
REMARK   53  A    between atoms: _129  and  _131
REMARK   54  A    between atoms: _131  and  _132
REMARK   55  A    between atoms: _134  and  _136
REMARK   56  A    between atoms: _136  and  _137
REMARK   57  A    between atoms: _136  and  _139
REMARK   58  A    between atoms: _139  and  _140
REMARK   59  A    between atoms: _140  and  _141
REMARK   60  A    between atoms: _144  and  _146
REMARK   61  A    between atoms: _146  and  _147
REMARK   62  A    between atoms: _150  and  _152
REMARK   63  A    between atoms: _152  and  _153
REMARK   64  A    between atoms: _152  and  _155
REMARK   65  A    between atoms: _155  and  _156
REMARK   66  A    between atoms: _161  and  _163
REMARK   67  A    between atoms: _163  and  _164
REMARK   68  A    between atoms: _167  and  _169
REMARK   69  A    between atoms: _169  and  _170
REMARK   70  A    between atoms: _169  and  _172
REMARK   71  A    between atoms: _172  and  _173
REMARK   72  A    between atoms: _173  and  _174
REMARK   73  A    between atoms: _174  and  _175
REMARK   74  A    between atoms: _175  and  _176
REMARK   75  A    between atoms: _180  and  _182
REMARK   76  A    between atoms: _182  and  _183
REMARK   77  A    between atoms: _182  and  _185
REMARK   78  A    between atoms: _185  and  _186
REMARK   79  A    between atoms: _186  and  _187
REMARK   80  A    between atoms: _187  and  _188
REMARK   81  A    between atoms: _188  and  _189
REMARK   82  A    between atoms: _193  and  _195
REMARK   83  A    between atoms: _195  and  _196
REMARK   84  A    between atoms: _195  and  _198
REMARK   85  A    between atoms: _198  and  _199
REMARK   86  A    between atoms: _199  and  _200
REMARK   87  A    between atoms: _200  and  _201
REMARK   88  A    between atoms: _210  and  _212
REMARK   89  A    between atoms: _212  and  _213
REMARK   90  A    between atoms: _212  and  _215
REMARK   91  A    between atoms: _215  and  _216
REMARK   92  A    between atoms: _216  and  _217
REMARK   93  A    between atoms: _220  and  _222
REMARK   94  A    between atoms: _222  and  _223
REMARK   95  A    between atoms: _222  and  _225
REMARK   96  A    between atoms: _228  and  _230
REMARK   97  A    between atoms: _230  and  _231
REMARK   98  A    between atoms: _234  and  _236
REMARK   99  A    between atoms: _236  and  _237
REMARK  100  A    between atoms: _236  and  _239
REMARK  101  A    between atoms: _239  and  _240
REMARK  102  A    between atoms: _250  and  _252
REMARK  103  A    between atoms: _252  and  _253
REMARK  104  A    between atoms: _252  and  _255
REMARK  105  A    between atoms: _258  and  _260
REMARK  106  A    between atoms: _260  and  _261
REMARK  107  A    between atoms: _260  and  _263
REMARK  108  A    between atoms: _263  and  _264
REMARK  109  A    between atoms: _267  and  _269
REMARK  110  A    between atoms: _269  and  _270
REMARK  111  A    between atoms: _269  and  _272
REMARK  112  A    between atoms: _272  and  _273
REMARK  113  A    between atoms: _279  and  _281
REMARK  114  A    between atoms: _281  and  _282
REMARK  115  A    between atoms: _281  and  _284
REMARK  116  A    between atoms: _284  and  _285
REMARK  117  A    between atoms: _285  and  _286
REMARK  118  A    between atoms: _291  and  _293
REMARK  119  A    between atoms: _293  and  _294
REMARK  120  A    between atoms: _293  and  _296
REMARK  121  A    between atoms: _299  and  _301
REMARK  122  A    between atoms: _301  and  _302
REMARK  123  A    between atoms: _301  and  _304
REMARK  124  A    between atoms: _304  and  _305
REMARK  125  A    between atoms: _308  and  _310
REMARK  126  A    between atoms: _310  and  _311
REMARK  127  A    between atoms: _310  and  _313
REMARK  128  A    between atoms: _313  and  _314
REMARK  129  A    between atoms: _317  and  _319
REMARK  130  A    between atoms: _319  and  _320
REMARK  131  A    between atoms: _319  and  _322
REMARK  132  A    between atoms: _322  and  _323
REMARK  133  A    between atoms: _326  and  _328
REMARK  134  A    between atoms: _328  and  _329
REMARK  135  A    between atoms: _328  and  _331
REMARK  136  A    between atoms: _331  and  _332
REMARK  137  A    between atoms: _335  and  _337
REMARK  138  A    between atoms: _337  and  _338
REMARK  139  A    between atoms: _337  and  _340
REMARK  140  A    between atoms: _340  and  _341
REMARK  141  A    between atoms: _341  and  _342
REMARK  142  A    between atoms: _342  and  _343
REMARK  143  A    between atoms: _352  and  _354
REMARK  144  A    between atoms: _354  and  _355
REMARK  145  A    between atoms: _354  and  _357
REMARK  146  A    between atoms: _357  and  _358
REMARK  147  A    between atoms: _361  and  _363
REMARK  148  A    between atoms: _363  and  _364
REMARK  149  A    between atoms: _363  and  _366
REMARK  150  A    between atoms: _366  and  _367
REMARK  151  A    between atoms: _371  and  _372
REMARK  152  A    between atoms: _377  and  _379
REMARK  153  A    between atoms: _379  and  _380
REMARK  154  A    between atoms: _379  and  _382
REMARK  155  A    between atoms: _382  and  _383
REMARK  156  A    between atoms: _388  and  _389
REMARK  157  A    between atoms: _391  and  _393
REMARK  158  A    between atoms: _393  and  _394
REMARK  159  A    between atoms: _393  and  _396
REMARK  160  A    between atoms: _396  and  _397
REMARK  161  A    between atoms: _407  and  _409
REMARK  162  A    between atoms: _409  and  _410
REMARK  163  A    between atoms: _409  and  _412
REMARK  164  A    between atoms: _412  and  _413
REMARK  165  A    between atoms: _419  and  _421
REMARK  166  A    between atoms: _421  and  _422
REMARK  167  A    between atoms: _421  and  _424
REMARK  168  A    between atoms: _424  and  _425
REMARK  169  A    between atoms: _428  and  _430
REMARK  170  A    between atoms: _430  and  _431
REMARK  171  A    between atoms: _430  and  _433
REMARK  172  A    between atoms: _433  and  _434
REMARK  173  A    between atoms: _444  and  _446
REMARK  174  A    between atoms: _446  and  _447
REMARK  175  A    between atoms: _446  and  _449
REMARK  176  A    between atoms: _449  and  _450
REMARK  177  A    between atoms: _450  and  _451
REMARK  178  A    between atoms: _453  and  _455
REMARK  179  A    between atoms: _455  and  _456
REMARK  180  A    between atoms: _455  and  _458
REMARK  181  A    between atoms: _458  and  _459
REMARK  182  A    between atoms: _464  and  _466
REMARK  183  A    between atoms: _466  and  _467
REMARK  184  A    between atoms: _470  and  _471
REMARK  185  A    between atoms: _476  and  _478
REMARK  186  A    between atoms: _478  and  _479
REMARK  187  A    between atoms: _478  and  _481
REMARK  188  A    between atoms: _481  and  _482
REMARK  189  A    between atoms: _492  and  _494
REMARK  190  A    between atoms: _494  and  _495
REMARK  191  A    between atoms: _499  and  _500
REMARK  192  A    between atoms: _505  and  _507
REMARK  193  A    between atoms: _507  and  _508
REMARK  194  A    between atoms: _507  and  _510
REMARK  195  A    between atoms: _510  and  _511
REMARK  196  A    between atoms: _511  and  _512
REMARK  197  A    between atoms: _517  and  _519
REMARK  198  A    between atoms: _519  and  _520
REMARK  199  A    between atoms: _522  and  _524
REMARK  200  A    between atoms: _524  and  _525
REMARK  201  A    between atoms: _527  and  _529
REMARK  202  A    between atoms: _529  and  _530
REMARK  203  A    between atoms: _529  and  _532
REMARK  204  A    between atoms: _532  and  _533
REMARK  205  A    between atoms: _543  and  _545
REMARK  206  A    between atoms: _545  and  _546
REMARK  207  A    between atoms: _545  and  _548
REMARK  208  A    between atoms: _548  and  _549
REMARK  209  A    between atoms: _552  and  _554
REMARK  210  A    between atoms: _554  and  _555
REMARK  211  A    between atoms: _554  and  _557
REMARK  212  A    between atoms: _557  and  _558
REMARK  213  A    between atoms: _561  and  _563
REMARK  214  A    between atoms: _563  and  _564
REMARK  215  A    between atoms: _563  and  _566
REMARK  216  A    between atoms: _566  and  _567
REMARK  217  A    between atoms: _567  and  _568
REMARK  218  A    between atoms: _568  and  _569
REMARK  219  A    between atoms: _578  and  _580
REMARK  220  A    between atoms: _580  and  _581
REMARK  221  A    between atoms: _580  and  _583
REMARK  222  A    between atoms: _583  and  _584
REMARK  223  A    between atoms: _594  and  _596
REMARK  224  A    between atoms: _596  and  _597
REMARK  225  A    between atoms: _600  and  _602
REMARK  226  A    between atoms: _602  and  _603
REMARK  227  A    between atoms: _602  and  _605
REMARK  228  A    between atoms: _605  and  _606
REMARK  229  A    between atoms: _606  and  _607
REMARK  230  A    between atoms: _610  and  _612
REMARK  231  A    between atoms: _612  and  _613
REMARK  232  A    between atoms: _615  and  _617
REMARK  233  A    between atoms: _617  and  _618
REMARK  234  A    between atoms: _617  and  _620
REMARK  235  A    between atoms: _620  and  _621
REMARK  236  A    between atoms: _626  and  _628
REMARK  237  A    between atoms: _628  and  _629
REMARK  238  A    between atoms: _632  and  _634
REMARK  239  A    between atoms: _634  and  _635
REMARK  240  A    between atoms: _634  and  _637
REMARK  241  A    between atoms: _637  and  _638
REMARK  242  A    between atoms: _641  and  _643
REMARK  243  A    between atoms: _643  and  _644
REMARK  244  A    between atoms: _643  and  _646
REMARK  245  A    between atoms: _646  and  _647
REMARK  246  A    between atoms: _653  and  _655
REMARK  247  A    between atoms: _655  and  _656
REMARK  248  A    between atoms: _655  and  _658
REMARK  249  A    between atoms: _658  and  _659
REMARK  250  A    between atoms: _659  and  _660
REMARK  251  A    between atoms: _663  and  _665
REMARK  252  A    between atoms: _665  and  _666
REMARK  253  A    between atoms: _665  and  _668
REMARK  254  A    between atoms: _668  and  _669
REMARK  255  A    between atoms: _669  and  _670
REMARK  256  A    between atoms: _670  and  _671
REMARK                            x       y       z     vdW  Elec       q    Type
REMARK                         _______ _______ _______ _____ _____    ______ ____
ROOT
ATOM      1  O   HOH     1      -9.072  -0.488  11.009  0.00  0.00    +0.000 OA
ENDROOT
TORSDOF 0
REMARK  Name = ../refined-set-2016/3k00/3k00_pocket.pdb
REMARK  256 active torsions:
REMARK  status: ('A' for Active; 'I' for Inactive)
REMARK    1  A    between atoms: _1  and  _3
REMARK    2  A    between atoms: _3  and  _4
REMARK    3  A    between atoms: _3  and  _6
REMARK    4  A    between atoms: _6  and  _7
REMARK    5  A    between atoms: _10  and  _12
REMARK    6  A    between atoms: _12  and  _13
REMARK    7  A    between atoms: _12  and  _15
REMARK    8  A    between atoms: _15  and  _16
REMARK    9  A    between atoms: _19  and  _21
REMARK   10  A    between atoms: _21  and  _22
REMARK   11  A    between atoms: _21  and  _24
REMARK   12  A    between atoms: _24  and  _25
REMARK   13  A    between atoms: _27  and  _29
REMARK   14  A    between atoms: _29  and  _30
REMARK   15  A    between atoms: _29  and  _32
REMARK   16  A    between atoms: _32  and  _33
REMARK   17  A    between atoms: _38  and  _40
REMARK   18  A    between atoms: _40  and  _41
REMARK   19  A    between atoms: _40  and  _43
REMARK   20  A    between atoms: _43  and  _44
REMARK   21  A    between atoms: _44  and  _45
REMARK   22  A    between atoms: _48  and  _50
REMARK   23  A    between atoms: _50  and  _51
REMARK   24  A    between atoms: _54  and  _56
REMARK   25  A    between atoms: _56  and  _57
REMARK   26  A    between atoms: _56  and  _59
REMARK   27  A    between atoms: _59  and  _60
REMARK   28  A    between atoms: _60  and  _61
REMARK   29  A    between atoms: _64  and  _66
REMARK   30  A    between atoms: _66  and  _67
REMARK   31  A    between atoms: _66  and  _69
REMARK   32  A    between atoms: _69  and  _70
REMARK   33  A    between atoms: _70  and  _71
REMARK   34  A    between atoms: _71  and  _72
REMARK   35  A    between atoms: _72  and  _73
REMARK   36  A    between atoms: _77  and  _79
REMARK   37  A    between atoms: _79  and  _80
REMARK   38  A    between atoms: _79  and  _82
REMARK   39  A    between atoms: _82  and  _83
REMARK   40  A    between atoms: _88  and  _89
REMARK   41  A    between atoms: _91  and  _93
REMARK   42  A    between atoms: _93  and  _94
REMARK   43  A    between atoms: _93  and  _96
REMARK   44  A    between atoms: _96  and  _97
REMARK   45  A    between atoms: _102  and  _104
REMARK   46  A    between atoms: _104  and  _105
REMARK   47  A    between atoms: _104  and  _107
REMARK   48  A    between atoms: _111  and  _112
REMARK   49  A    between atoms: _117  and  _119
REMARK   50  A    between atoms: _119  and  _120
REMARK   51  A    between atoms: _119  and  _122
REMARK   52  A    between atoms: _122  and  _123
REMARK   53  A    between atoms: _129  and  _131
REMARK   54  A    between atoms: _131  and  _132
REMARK   55  A    between atoms: _134  and  _136
REMARK   56  A    between atoms: _136  and  _137
REMARK   57  A    between atoms: _136  and  _139
REMARK   58  A    between atoms: _139  and  _140
REMARK   59  A    between atoms: _140  and  _141
REMARK   60  A    between atoms: _144  and  _146
REMARK   61  A    between atoms: _146  and  _147
REMARK   62  A    between atoms: _150  and  _152
REMARK   63  A    between atoms: _152  and  _153
REMARK   64  A    between atoms: _152  and  _155
REMARK   65  A    between atoms: _155  and  _156
REMARK   66  A    between atoms: _161  and  _163
REMARK   67  A    between atoms: _163  and  _164
REMARK   68  A    between atoms: _167  and  _169
REMARK   69  A    between atoms: _169  and  _170
REMARK   70  A    between atoms: _169  and  _172
REMARK   71  A    between atoms: _172  and  _173
REMARK   72  A    between atoms: _173  and  _174
REMARK   73  A    between atoms: _174  and  _175
REMARK   74  A    between atoms: _175  and  _176
REMARK   75  A    between atoms: _180  and  _182
REMARK   76  A    between atoms: _182  and  _183
REMARK   77  A    between atoms: _182  and  _185
REMARK   78  A    between atoms: _185  and  _186
REMARK   79  A    between atoms: _186  and  _187
REMARK   80  A    between atoms: _187  and  _188
REMARK   81  A    between atoms: _188  and  _189
REMARK   82  A    between atoms: _193  and  _195
REMARK   83  A    between atoms: _195  and  _196
REMARK   84  A    between atoms: _195  and  _198
REMARK   85  A    between atoms: _198  and  _199
REMARK   86  A    between atoms: _199  and  _200
REMARK   87  A    between atoms: _200  and  _201
REMARK   88  A    between atoms: _210  and  _212
REMARK   89  A    between atoms: _212  and  _213
REMARK   90  A    between atoms: _212  and  _215
REMARK   91  A    between atoms: _215  and  _216
REMARK   92  A    between atoms: _216  and  _217
REMARK   93  A    between atoms: _220  and  _222
REMARK   94  A    between atoms: _222  and  _223
REMARK   95  A    between atoms: _222  and  _225
REMARK   96  A    between atoms: _228  and  _230
REMARK   97  A    between atoms: _230  and  _231
REMARK   98  A    between atoms: _234  and  _236
REMARK   99  A    between atoms: _236  and  _237
REMARK  100  A    between atoms: _236  and  _239
REMARK  101  A    between atoms: _239  and  _240
REMARK  102  A    between atoms: _250  and  _252
REMARK  103  A    between atoms: _252  and  _253
REMARK  104  A    between atoms: _252  and  _255
REMARK  105  A    between atoms: _258  and  _260
REMARK  106  A    between atoms: _260  and  _261
REMARK  107  A    between atoms: _260  and  _263
REMARK  108  A    between atoms: _263  and  _264
REMARK  109  A    between atoms: _267  and  _269
REMARK  110  A    between atoms: _269  and  _270
REMARK  111  A    between atoms: _269  and  _272
REMARK  112  A    between atoms: _272  and  _273
REMARK  113  A    between atoms: _279  and  _281
REMARK  114  A    between atoms: _281  and  _282
REMARK  115  A    between atoms: _281  and  _284
REMARK  116  A    between atoms: _284  and  _285
REMARK  117  A    between atoms: _285  and  _286
REMARK  118  A    between atoms: _291  and  _293
REMARK  119  A    between atoms: _293  and  _294
REMARK  120  A    between atoms: _293  and  _296
REMARK  121  A    between atoms: _299  and  _301
REMARK  122  A    between atoms: _301  and  _302
REMARK  123  A    between atoms: _301  and  _304
REMARK  124  A    between atoms: _304  and  _305
REMARK  125  A    between atoms: _308  and  _310
REMARK  126  A    between atoms: _310  and  _311
REMARK  127  A    between atoms: _310  and  _313
REMARK  128  A    between atoms: _313  and  _314
REMARK  129  A    between atoms: _317  and  _319
REMARK  130  A    between atoms: _319  and  _320
REMARK  131  A    between atoms: _319  and  _322
REMARK  132  A    between atoms: _322  and  _323
REMARK  133  A    between atoms: _326  and  _328
REMARK  134  A    between atoms: _328  and  _329
REMARK  135  A    between atoms: _328  and  _331
REMARK  136  A    between atoms: _331  and  _332
REMARK  137  A    between atoms: _335  and  _337
REMARK  138  A    between atoms: _337  and  _338
REMARK  139  A    between atoms: _337  and  _340
REMARK  140  A    between atoms: _340  and  _341
REMARK  141  A    between atoms: _341  and  _342
REMARK  142  A    between atoms: _342  and  _343
REMARK  143  A    between atoms: _352  and  _354
REMARK  144  A    between atoms: _354  and  _355
REMARK  145  A    between atoms: _354  and  _357
REMARK  146  A    between atoms: _357  and  _358
REMARK  147  A    between atoms: _361  and  _363
REMARK  148  A    between atoms: _363  and  _364
REMARK  149  A    between atoms: _363  and  _366
REMARK  150  A    between atoms: _366  and  _367
REMARK  151  A    between atoms: _371  and  _372
REMARK  152  A    between atoms: _377  and  _379
REMARK  153  A    between atoms: _379  and  _380
REMARK  154  A    between atoms: _379  and  _382
REMARK  155  A    between atoms: _382  and  _383
REMARK  156  A    between atoms: _388  and  _389
REMARK  157  A    between atoms: _391  and  _393
REMARK  158  A    between atoms: _393  and  _394
REMARK  159  A    between atoms: _393  and  _396
REMARK  160  A    between atoms: _396  and  _397
REMARK  161  A    between atoms: _407  and  _409
REMARK  162  A    between atoms: _409  and  _410
REMARK  163  A    between atoms: _409  and  _412
REMARK  164  A    between atoms: _412  and  _413
REMARK  165  A    between atoms: _419  and  _421
REMARK  166  A    between atoms: _421  and  _422
REMARK  167  A    between atoms: _421  and  _424
REMARK  168  A    between atoms: _424  and  _425
REMARK  169  A    between atoms: _428  and  _430
REMARK  170  A    between atoms: _430  and  _431
REMARK  171  A    between atoms: _430  and  _433
REMARK  172  A    between atoms: _433  and  _434
REMARK  173  A    between atoms: _444  and  _446
REMARK  174  A    between atoms: _446  and  _447
REMARK  175  A    between atoms: _446  and  _449
REMARK  176  A    between atoms: _449  and  _450
REMARK  177  A    between atoms: _450  and  _451
REMARK  178  A    between atoms: _453  and  _455
REMARK  179  A    between atoms: _455  and  _456
REMARK  180  A    between atoms: _455  and  _458
REMARK  181  A    between atoms: _458  and  _459
REMARK  182  A    between atoms: _464  and  _466
REMARK  183  A    between atoms: _466  and  _467
REMARK  184  A    between atoms: _470  and  _471
REMARK  185  A    between atoms: _476  and  _478
REMARK  186  A    between atoms: _478  and  _479
REMARK  187  A    between atoms: _478  and  _481
REMARK  188  A    between atoms: _481  and  _482
REMARK  189  A    between atoms: _492  and  _494
REMARK  190  A    between atoms: _494  and  _495
REMARK  191  A    between atoms: _499  and  _500
REMARK  192  A    between atoms: _505  and  _507
REMARK  193  A    between atoms: _507  and  _508
REMARK  194  A    between atoms: _507  and  _510
REMARK  195  A    between atoms: _510  and  _511
REMARK  196  A    between atoms: _511  and  _512
REMARK  197  A    between atoms: _517  and  _519
REMARK  198  A    between atoms: _519  and  _520
REMARK  199  A    between atoms: _522  and  _524
REMARK  200  A    between atoms: _524  and  _525
REMARK  201  A    between atoms: _527  and  _529
REMARK  202  A    between atoms: _529  and  _530
REMARK  203  A    between atoms: _529  and  _532
REMARK  204  A    between atoms: _532  and  _533
REMARK  205  A    between atoms: _543  and  _545
REMARK  206  A    between atoms: _545  and  _546
REMARK  207  A    between atoms: _545  and  _548
REMARK  208  A    between atoms: _548  and  _549
REMARK  209  A    between atoms: _552  and  _554
REMARK  210  A    between atoms: _554  and  _555
REMARK  211  A    between atoms: _554  and  _557
REMARK  212  A    between atoms: _557  and  _558
REMARK  213  A    between atoms: _561  and  _563
REMARK  214  A    between atoms: _563  and  _564
REMARK  215  A    between atoms: _563  and  _566
REMARK  216  A    between atoms: _566  and  _567
REMARK  217  A    between atoms: _567  and  _568
REMARK  218  A    between atoms: _568  and  _569
REMARK  219  A    between atoms: _578  and  _580
REMARK  220  A    between atoms: _580  and  _581
REMARK  221  A    between atoms: _580  and  _583
REMARK  222  A    between atoms: _583  and  _584
REMARK  223  A    between atoms: _594  and  _596
REMARK  224  A    between atoms: _596  and  _597
REMARK  225  A    between atoms: _600  and  _602
REMARK  226  A    between atoms: _602  and  _603
REMARK  227  A    between atoms: _602  and  _605
REMARK  228  A    between atoms: _605  and  _606
REMARK  229  A    between atoms: _606  and  _607
REMARK  230  A    between atoms: _610  and  _612
REMARK  231  A    between atoms: _612  and  _613
REMARK  232  A    between atoms: _615  and  _617
REMARK  233  A    between atoms: _617  and  _618
REMARK  234  A    between atoms: _617  and  _620
REMARK  235  A    between atoms: _620  and  _621
REMARK  236  A    between atoms: _626  and  _628
REMARK  237  A    between atoms: _628  and  _629
REMARK  238  A    between atoms: _632  and  _634
REMARK  239  A    between atoms: _634  and  _635
REMARK  240  A    between atoms: _634  and  _637
REMARK  241  A    between atoms: _637  and  _638
REMARK  242  A    between atoms: _641  and  _643
REMARK  243  A    between atoms: _643  and  _644
REMARK  244  A    between atoms: _643  and  _646
REMARK  245  A    between atoms: _646  and  _647
REMARK  246  A    between atoms: _653  and  _655
REMARK  247  A    between atoms: _655  and  _656
REMARK  248  A    between atoms: _655  and  _658
REMARK  249  A    between atoms: _658  and  _659
REMARK  250  A    between atoms: _659  and  _660
REMARK  251  A    between atoms: _663  and  _665
REMARK  252  A    between atoms: _665  and  _666
REMARK  253  A    between atoms: _665  and  _668
REMARK  254  A    between atoms: _668  and  _669
REMARK  255  A    between atoms: _669  and  _670
REMARK  256  A    between atoms: _670  and  _671
REMARK                            x       y       z     vdW  Elec       q    Type
REMARK                         _______ _______ _______ _____ _____    ______ ____
ROOT
ATOM      1  O   HOH     1      -2.847  -0.753  25.400  0.00  0.00    +0.000 OA
ENDROOT
TORSDOF 0
REMARK  Name = ../refined-set-2016/3k00/3k00_pocket.pdb
REMARK  256 active torsions:
REMARK  status: ('A' for Active; 'I' for Inactive)
REMARK    1  A    between atoms: _1  and  _3
REMARK    2  A    between atoms: _3  and  _4
REMARK    3  A    between atoms: _3  and  _6
REMARK    4  A    between atoms: _6  and  _7
REMARK    5  A    between atoms: _10  and  _12
REMARK    6  A    between atoms: _12  and  _13
REMARK    7  A    between atoms: _12  and  _15
REMARK    8  A    between atoms: _15  and  _16
REMARK    9  A    between atoms: _19  and  _21
REMARK   10  A    between atoms: _21  and  _22
REMARK   11  A    between atoms: _21  and  _24
REMARK   12  A    between atoms: _24  and  _25
REMARK   13  A    between atoms: _27  and  _29
REMARK   14  A    between atoms: _29  and  _30
REMARK   15  A    between atoms: _29  and  _32
REMARK   16  A    between atoms: _32  and  _33
REMARK   17  A    between atoms: _38  and  _40
REMARK   18  A    between atoms: _40  and  _41
REMARK   19  A    between atoms: _40  and  _43
REMARK   20  A    between atoms: _43  and  _44
REMARK   21  A    between atoms: _44  and  _45
REMARK   22  A    between atoms: _48  and  _50
REMARK   23  A    between atoms: _50  and  _51
REMARK   24  A    between atoms: _54  and  _56
REMARK   25  A    between atoms: _56  and  _57
REMARK   26  A    between atoms: _56  and  _59
REMARK   27  A    between atoms: _59  and  _60
REMARK   28  A    between atoms: _60  and  _61
REMARK   29  A    between atoms: _64  and  _66
REMARK   30  A    between atoms: _66  and  _67
REMARK   31  A    between atoms: _66  and  _69
REMARK   32  A    between atoms: _69  and  _70
REMARK   33  A    between atoms: _70  and  _71
REMARK   34  A    between atoms: _71  and  _72
REMARK   35  A    between atoms: _72  and  _73
REMARK   36  A    between atoms: _77  and  _79
REMARK   37  A    between atoms: _79  and  _80
REMARK   38  A    between atoms: _79  and  _82
REMARK   39  A    between atoms: _82  and  _83
REMARK   40  A    between atoms: _88  and  _89
REMARK   41  A    between atoms: _91  and  _93
REMARK   42  A    between atoms: _93  and  _94
REMARK   43  A    between atoms: _93  and  _96
REMARK   44  A    between atoms: _96  and  _97
REMARK   45  A    between atoms: _102  and  _104
REMARK   46  A    between atoms: _104  and  _105
REMARK   47  A    between atoms: _104  and  _107
REMARK   48  A    between atoms: _111  and  _112
REMARK   49  A    between atoms: _117  and  _119
REMARK   50  A    between atoms: _119  and  _120
REMARK   51  A    between atoms: _119  and  _122
REMARK   52  A    between atoms: _122  and  _123
REMARK   53  A    between atoms: _129  and  _131
REMARK   54  A    between atoms: _131  and  _132
REMARK   55  A    between atoms: _134  and  _136
REMARK   56  A    between atoms: _136  and  _137
REMARK   57  A    between atoms: _136  and  _139
REMARK   58  A    between atoms: _139  and  _140
REMARK   59  A    between atoms: _140  and  _141
REMARK   60  A    between atoms: _144  and  _146
REMARK   61  A    between atoms: _146  and  _147
REMARK   62  A    between atoms: _150  and  _152
REMARK   63  A    between atoms: _152  and  _153
REMARK   64  A    between atoms: _152  and  _155
REMARK   65  A    between atoms: _155  and  _156
REMARK   66  A    between atoms: _161  and  _163
REMARK   67  A    between atoms: _163  and  _164
REMARK   68  A    between atoms: _167  and  _169
REMARK   69  A    between atoms: _169  and  _170
REMARK   70  A    between atoms: _169  and  _172
REMARK   71  A    between atoms: _172  and  _173
REMARK   72  A    between atoms: _173  and  _174
REMARK   73  A    between atoms: _174  and  _175
REMARK   74  A    between atoms: _175  and  _176
REMARK   75  A    between atoms: _180  and  _182
REMARK   76  A    between atoms: _182  and  _183
REMARK   77  A    between atoms: _182  and  _185
REMARK   78  A    between atoms: _185  and  _186
REMARK   79  A    between atoms: _186  and  _187
REMARK   80  A    between atoms: _187  and  _188
REMARK   81  A    between atoms: _188  and  _189
REMARK   82  A    between atoms: _193  and  _195
REMARK   83  A    between atoms: _195  and  _196
REMARK   84  A    between atoms: _195  and  _198
REMARK   85  A    between atoms: _198  and  _199
REMARK   86  A    between atoms: _199  and  _200
REMARK   87  A    between atoms: _200  and  _201
REMARK   88  A    between atoms: _210  and  _212
REMARK   89  A    between atoms: _212  and  _213
REMARK   90  A    between atoms: _212  and  _215
REMARK   91  A    between atoms: _215  and  _216
REMARK   92  A    between atoms: _216  and  _217
REMARK   93  A    between atoms: _220  and  _222
REMARK   94  A    between atoms: _222  and  _223
REMARK   95  A    between atoms: _222  and  _225
REMARK   96  A    between atoms: _228  and  _230
REMARK   97  A    between atoms: _230  and  _231
REMARK   98  A    between atoms: _234  and  _236
REMARK   99  A    between atoms: _236  and  _237
REMARK  100  A    between atoms: _236  and  _239
REMARK  101  A    between atoms: _239  and  _240
REMARK  102  A    between atoms: _250  and  _252
REMARK  103  A    between atoms: _252  and  _253
REMARK  104  A    between atoms: _252  and  _255
REMARK  105  A    between atoms: _258  and  _260
REMARK  106  A    between atoms: _260  and  _261
REMARK  107  A    between atoms: _260  and  _263
REMARK  108  A    between atoms: _263  and  _264
REMARK  109  A    between atoms: _267  and  _269
REMARK  110  A    between atoms: _269  and  _270
REMARK  111  A    between atoms: _269  and  _272
REMARK  112  A    between atoms: _272  and  _273
REMARK  113  A    between atoms: _279  and  _281
REMARK  114  A    between atoms: _281  and  _282
REMARK  115  A    between atoms: _281  and  _284
REMARK  116  A    between atoms: _284  and  _285
REMARK  117  A    between atoms: _285  and  _286
REMARK  118  A    between atoms: _291  and  _293
REMARK  119  A    between atoms: _293  and  _294
REMARK  120  A    between atoms: _293  and  _296
REMARK  121  A    between atoms: _299  and  _301
REMARK  122  A    between atoms: _301  and  _302
REMARK  123  A    between atoms: _301  and  _304
REMARK  124  A    between atoms: _304  and  _305
REMARK  125  A    between atoms: _308  and  _310
REMARK  126  A    between atoms: _310  and  _311
REMARK  127  A    between atoms: _310  and  _313
REMARK  128  A    between atoms: _313  and  _314
REMARK  129  A    between atoms: _317  and  _319
REMARK  130  A    between atoms: _319  and  _320
REMARK  131  A    between atoms: _319  and  _322
REMARK  132  A    between atoms: _322  and  _323
REMARK  133  A    between atoms: _326  and  _328
REMARK  134  A    between atoms: _328  and  _329
REMARK  135  A    between atoms: _328  and  _331
REMARK  136  A    between atoms: _331  and  _332
REMARK  137  A    between atoms: _335  and  _337
REMARK  138  A    between atoms: _337  and  _338
REMARK  139  A    between atoms: _337  and  _340
REMARK  140  A    between atoms: _340  and  _341
REMARK  141  A    between atoms: _341  and  _342
REMARK  142  A    between atoms: _342  and  _343
REMARK  143  A    between atoms: _352  and  _354
REMARK  144  A    between atoms: _354  and  _355
REMARK  145  A    between atoms: _354  and  _357
REMARK  146  A    between atoms: _357  and  _358
REMARK  147  A    between atoms: _361  and  _363
REMARK  148  A    between atoms: _363  and  _364
REMARK  149  A    between atoms: _363  and  _366
REMARK  150  A    between atoms: _366  and  _367
REMARK  151  A    between atoms: _371  and  _372
REMARK  152  A    between atoms: _377  and  _379
REMARK  153  A    between atoms: _379  and  _380
REMARK  154  A    between atoms: _379  and  _382
REMARK  155  A    between atoms: _382  and  _383
REMARK  156  A    between atoms: _388  and  _389
REMARK  157  A    between atoms: _391  and  _393
REMARK  158  A    between atoms: _393  and  _394
REMARK  159  A    between atoms: _393  and  _396
REMARK  160  A    between atoms: _396  and  _397
REMARK  161  A    between atoms: _407  and  _409
REMARK  162  A    between atoms: _409  and  _410
REMARK  163  A    between atoms: _409  and  _412
REMARK  164  A    between atoms: _412  and  _413
REMARK  165  A    between atoms: _419  and  _421
REMARK  166  A    between atoms: _421  and  _422
REMARK  167  A    between atoms: _421  and  _424
REMARK  168  A    between atoms: _424  and  _425
REMARK  169  A    between atoms: _428  and  _430
REMARK  170  A    between atoms: _430  and  _431
REMARK  171  A    between atoms: _430  and  _433
REMARK  172  A    between atoms: _433  and  _434
REMARK  173  A    between atoms: _444  and  _446
REMARK  174  A    between atoms: _446  and  _447
REMARK  175  A    between atoms: _446  and  _449
REMARK  176  A    between atoms: _449  and  _450
REMARK  177  A    between atoms: _450  and  _451
REMARK  178  A    between atoms: _453  and  _455
REMARK  179  A    between atoms: _455  and  _456
REMARK  180  A    between atoms: _455  and  _458
REMARK  181  A    between atoms: _458  and  _459
REMARK  182  A    between atoms: _464  and  _466
REMARK  183  A    between atoms: _466  and  _467
REMARK  184  A    between atoms: _470  and  _471
REMARK  185  A    between atoms: _476  and  _478
REMARK  186  A    between atoms: _478  and  _479
REMARK  187  A    between atoms: _478  and  _481
REMARK  188  A    between atoms: _481  and  _482
REMARK  189  A    between atoms: _492  and  _494
REMARK  190  A    between atoms: _494  and  _495
REMARK  191  A    between atoms: _499  and  _500
REMARK  192  A    between atoms: _505  and  _507
REMARK  193  A    between atoms: _507  and  _508
REMARK  194  A    between atoms: _507  and  _510
REMARK  195  A    between atoms: _510  and  _511
REMARK  196  A    between atoms: _511  and  _512
REMARK  197  A    between atoms: _517  and  _519
REMARK  198  A    between atoms: _519  and  _520
REMARK  199  A    between atoms: _522  and  _524
REMARK  200  A    between atoms: _524  and  _525
REMARK  201  A    between atoms: _527  and  _529
REMARK  202  A    between atoms: _529  and  _530
REMARK  203  A    between atoms: _529  and  _532
REMARK  204  A    between atoms: _532  and  _533
REMARK  205  A    between atoms: _543  and  _545
REMARK  206  A    between atoms: _545  and  _546
REMARK  207  A    between atoms: _545  and  _548
REMARK  208  A    between atoms: _548  and  _549
REMARK  209  A    between atoms: _552  and  _554
REMARK  210  A    between atoms: _554  and  _555
REMARK  211  A    between atoms: _554  and  _557
REMARK  212  A    between atoms: _557  and  _558
REMARK  213  A    between atoms: _561  and  _563
REMARK  214  A    between atoms: _563  and  _564
REMARK  215  A    between atoms: _563  and  _566
REMARK  216  A    between atoms: _566  and  _567
REMARK  217  A    between atoms: _567  and  _568
REMARK  218  A    between atoms: _568  and  _569
REMARK  219  A    between atoms: _578  and  _580
REMARK  220  A    between atoms: _580  and  _581
REMARK  221  A    between atoms: _580  and  _583
REMARK  222  A    between atoms: _583  and  _584
REMARK  223  A    between atoms: _594  and  _596
REMARK  224  A    between atoms: _596  and  _597
REMARK  225  A    between atoms: _600  and  _602
REMARK  226  A    between atoms: _602  and  _603
REMARK  227  A    between atoms: _602  and  _605
REMARK  228  A    between atoms: _605  and  _606
REMARK  229  A    between atoms: _606  and  _607
REMARK  230  A    between atoms: _610  and  _612
REMARK  231  A    between atoms: _612  and  _613
REMARK  232  A    between atoms: _615  and  _617
REMARK  233  A    between atoms: _617  and  _618
REMARK  234  A    between atoms: _617  and  _620
REMARK  235  A    between atoms: _620  and  _621
REMARK  236  A    between atoms: _626  and  _628
REMARK  237  A    between atoms: _628  and  _629
REMARK  238  A    between atoms: _632  and  _634
REMARK  239  A    between atoms: _634  and  _635
REMARK  240  A    between atoms: _634  and  _637
REMARK  241  A    between atoms: _637  and  _638
REMARK  242  A    between atoms: _641  and  _643
REMARK  243  A    between atoms: _643  and  _644
REMARK  244  A    between atoms: _643  and  _646
REMARK  245  A    between atoms: _646  and  _647
REMARK  246  A    between atoms: _653  and  _655
REMARK  247  A    between atoms: _655  and  _656
REMARK  248  A    between atoms: _655  and  _658
REMARK  249  A    between atoms: _658  and  _659
REMARK  250  A    between atoms: _659  and  _660
REMARK  251  A    between atoms: _663  and  _665
REMARK  252  A    between atoms: _665  and  _666
REMARK  253  A    between atoms: _665  and  _668
REMARK  254  A    between atoms: _668  and  _669
REMARK  255  A    between atoms: _669  and  _670
REMARK  256  A    between atoms: _670  and  _671
REMARK                            x       y       z     vdW  Elec       q    Type
REMARK                         _______ _______ _______ _____ _____    ______ ____
ROOT
ATOM      1  O   HOH     1      -6.311 -14.926  15.256  0.00  0.00    +0.000 OA
ENDROOT
TORSDOF 0
REMARK  Name = ../refined-set-2016/3k00/3k00_pocket.pdb
REMARK  256 active torsions:
REMARK  status: ('A' for Active; 'I' for Inactive)
REMARK    1  A    between atoms: _1  and  _3
REMARK    2  A    between atoms: _3  and  _4
REMARK    3  A    between atoms: _3  and  _6
REMARK    4  A    between atoms: _6  and  _7
REMARK    5  A    between atoms: _10  and  _12
REMARK    6  A    between atoms: _12  and  _13
REMARK    7  A    between atoms: _12  and  _15
REMARK    8  A    between atoms: _15  and  _16
REMARK    9  A    between atoms: _19  and  _21
REMARK   10  A    between atoms: _21  and  _22
REMARK   11  A    between atoms: _21  and  _24
REMARK   12  A    between atoms: _24  and  _25
REMARK   13  A    between atoms: _27  and  _29
REMARK   14  A    between atoms: _29  and  _30
REMARK   15  A    between atoms: _29  and  _32
REMARK   16  A    between atoms: _32  and  _33
REMARK   17  A    between atoms: _38  and  _40
REMARK   18  A    between atoms: _40  and  _41
REMARK   19  A    between atoms: _40  and  _43
REMARK   20  A    between atoms: _43  and  _44
REMARK   21  A    between atoms: _44  and  _45
REMARK   22  A    between atoms: _48  and  _50
REMARK   23  A    between atoms: _50  and  _51
REMARK   24  A    between atoms: _54  and  _56
REMARK   25  A    between atoms: _56  and  _57
REMARK   26  A    between atoms: _56  and  _59
REMARK   27  A    between atoms: _59  and  _60
REMARK   28  A    between atoms: _60  and  _61
REMARK   29  A    between atoms: _64  and  _66
REMARK   30  A    between atoms: _66  and  _67
REMARK   31  A    between atoms: _66  and  _69
REMARK   32  A    between atoms: _69  and  _70
REMARK   33  A    between atoms: _70  and  _71
REMARK   34  A    between atoms: _71  and  _72
REMARK   35  A    between atoms: _72  and  _73
REMARK   36  A    between atoms: _77  and  _79
REMARK   37  A    between atoms: _79  and  _80
REMARK   38  A    between atoms: _79  and  _82
REMARK   39  A    between atoms: _82  and  _83
REMARK   40  A    between atoms: _88  and  _89
REMARK   41  A    between atoms: _91  and  _93
REMARK   42  A    between atoms: _93  and  _94
REMARK   43  A    between atoms: _93  and  _96
REMARK   44  A    between atoms: _96  and  _97
REMARK   45  A    between atoms: _102  and  _104
REMARK   46  A    between atoms: _104  and  _105
REMARK   47  A    between atoms: _104  and  _107
REMARK   48  A    between atoms: _111  and  _112
REMARK   49  A    between atoms: _117  and  _119
REMARK   50  A    between atoms: _119  and  _120
REMARK   51  A    between atoms: _119  and  _122
REMARK   52  A    between atoms: _122  and  _123
REMARK   53  A    between atoms: _129  and  _131
REMARK   54  A    between atoms: _131  and  _132
REMARK   55  A    between atoms: _134  and  _136
REMARK   56  A    between atoms: _136  and  _137
REMARK   57  A    between atoms: _136  and  _139
REMARK   58  A    between atoms: _139  and  _140
REMARK   59  A    between atoms: _140  and  _141
REMARK   60  A    between atoms: _144  and  _146
REMARK   61  A    between atoms: _146  and  _147
REMARK   62  A    between atoms: _150  and  _152
REMARK   63  A    between atoms: _152  and  _153
REMARK   64  A    between atoms: _152  and  _155
REMARK   65  A    between atoms: _155  and  _156
REMARK   66  A    between atoms: _161  and  _163
REMARK   67  A    between atoms: _163  and  _164
REMARK   68  A    between atoms: _167  and  _169
REMARK   69  A    between atoms: _169  and  _170
REMARK   70  A    between atoms: _169  and  _172
REMARK   71  A    between atoms: _172  and  _173
REMARK   72  A    between atoms: _173  and  _174
REMARK   73  A    between atoms: _174  and  _175
REMARK   74  A    between atoms: _175  and  _176
REMARK   75  A    between atoms: _180  and  _182
REMARK   76  A    between atoms: _182  and  _183
REMARK   77  A    between atoms: _182  and  _185
REMARK   78  A    between atoms: _185  and  _186
REMARK   79  A    between atoms: _186  and  _187
REMARK   80  A    between atoms: _187  and  _188
REMARK   81  A    between atoms: _188  and  _189
REMARK   82  A    between atoms: _193  and  _195
REMARK   83  A    between atoms: _195  and  _196
REMARK   84  A    between atoms: _195  and  _198
REMARK   85  A    between atoms: _198  and  _199
REMARK   86  A    between atoms: _199  and  _200
REMARK   87  A    between atoms: _200  and  _201
REMARK   88  A    between atoms: _210  and  _212
REMARK   89  A    between atoms: _212  and  _213
REMARK   90  A    between atoms: _212  and  _215
REMARK   91  A    between atoms: _215  and  _216
REMARK   92  A    between atoms: _216  and  _217
REMARK   93  A    between atoms: _220  and  _222
REMARK   94  A    between atoms: _222  and  _223
REMARK   95  A    between atoms: _222  and  _225
REMARK   96  A    between atoms: _228  and  _230
REMARK   97  A    between atoms: _230  and  _231
REMARK   98  A    between atoms: _234  and  _236
REMARK   99  A    between atoms: _236  and  _237
REMARK  100  A    between atoms: _236  and  _239
REMARK  101  A    between atoms: _239  and  _240
REMARK  102  A    between atoms: _250  and  _252
REMARK  103  A    between atoms: _252  and  _253
REMARK  104  A    between atoms: _252  and  _255
REMARK  105  A    between atoms: _258  and  _260
REMARK  106  A    between atoms: _260  and  _261
REMARK  107  A    between atoms: _260  and  _263
REMARK  108  A    between atoms: _263  and  _264
REMARK  109  A    between atoms: _267  and  _269
REMARK  110  A    between atoms: _269  and  _270
REMARK  111  A    between atoms: _269  and  _272
REMARK  112  A    between atoms: _272  and  _273
REMARK  113  A    between atoms: _279  and  _281
REMARK  114  A    between atoms: _281  and  _282
REMARK  115  A    between atoms: _281  and  _284
REMARK  116  A    between atoms: _284  and  _285
REMARK  117  A    between atoms: _285  and  _286
REMARK  118  A    between atoms: _291  and  _293
REMARK  119  A    between atoms: _293  and  _294
REMARK  120  A    between atoms: _293  and  _296
REMARK  121  A    between atoms: _299  and  _301
REMARK  122  A    between atoms: _301  and  _302
REMARK  123  A    between atoms: _301  and  _304
REMARK  124  A    between atoms: _304  and  _305
REMARK  125  A    between atoms: _308  and  _310
REMARK  126  A    between atoms: _310  and  _311
REMARK  127  A    between atoms: _310  and  _313
REMARK  128  A    between atoms: _313  and  _314
REMARK  129  A    between atoms: _317  and  _319
REMARK  130  A    between atoms: _319  and  _320
REMARK  131  A    between atoms: _319  and  _322
REMARK  132  A    between atoms: _322  and  _323
REMARK  133  A    between atoms: _326  and  _328
REMARK  134  A    between atoms: _328  and  _329
REMARK  135  A    between atoms: _328  and  _331
REMARK  136  A    between atoms: _331  and  _332
REMARK  137  A    between atoms: _335  and  _337
REMARK  138  A    between atoms: _337  and  _338
REMARK  139  A    between atoms: _337  and  _340
REMARK  140  A    between atoms: _340  and  _341
REMARK  141  A    between atoms: _341  and  _342
REMARK  142  A    between atoms: _342  and  _343
REMARK  143  A    between atoms: _352  and  _354
REMARK  144  A    between atoms: _354  and  _355
REMARK  145  A    between atoms: _354  and  _357
REMARK  146  A    between atoms: _357  and  _358
REMARK  147  A    between atoms: _361  and  _363
REMARK  148  A    between atoms: _363  and  _364
REMARK  149  A    between atoms: _363  and  _366
REMARK  150  A    between atoms: _366  and  _367
REMARK  151  A    between atoms: _371  and  _372
REMARK  152  A    between atoms: _377  and  _379
REMARK  153  A    between atoms: _379  and  _380
REMARK  154  A    between atoms: _379  and  _382
REMARK  155  A    between atoms: _382  and  _383
REMARK  156  A    between atoms: _388  and  _389
REMARK  157  A    between atoms: _391  and  _393
REMARK  158  A    between atoms: _393  and  _394
REMARK  159  A    between atoms: _393  and  _396
REMARK  160  A    between atoms: _396  and  _397
REMARK  161  A    between atoms: _407  and  _409
REMARK  162  A    between atoms: _409  and  _410
REMARK  163  A    between atoms: _409  and  _412
REMARK  164  A    between atoms: _412  and  _413
REMARK  165  A    between atoms: _419  and  _421
REMARK  166  A    between atoms: _421  and  _422
REMARK  167  A    between atoms: _421  and  _424
REMARK  168  A    between atoms: _424  and  _425
REMARK  169  A    between atoms: _428  and  _430
REMARK  170  A    between atoms: _430  and  _431
REMARK  171  A    between atoms: _430  and  _433
REMARK  172  A    between atoms: _433  and  _434
REMARK  173  A    between atoms: _444  and  _446
REMARK  174  A    between atoms: _446  and  _447
REMARK  175  A    between atoms: _446  and  _449
REMARK  176  A    between atoms: _449  and  _450
REMARK  177  A    between atoms: _450  and  _451
REMARK  178  A    between atoms: _453  and  _455
REMARK  179  A    between atoms: _455  and  _456
REMARK  180  A    between atoms: _455  and  _458
REMARK  181  A    between atoms: _458  and  _459
REMARK  182  A    between atoms: _464  and  _466
REMARK  183  A    between atoms: _466  and  _467
REMARK  184  A    between atoms: _470  and  _471
REMARK  185  A    between atoms: _476  and  _478
REMARK  186  A    between atoms: _478  and  _479
REMARK  187  A    between atoms: _478  and  _481
REMARK  188  A    between atoms: _481  and  _482
REMARK  189  A    between atoms: _492  and  _494
REMARK  190  A    between atoms: _494  and  _495
REMARK  191  A    between atoms: _499  and  _500
REMARK  192  A    between atoms: _505  and  _507
REMARK  193  A    between atoms: _507  and  _508
REMARK  194  A    between atoms: _507  and  _510
REMARK  195  A    between atoms: _510  and  _511
REMARK  196  A    between atoms: _511  and  _512
REMARK  197  A    between atoms: _517  and  _519
REMARK  198  A    between atoms: _519  and  _520
REMARK  199  A    between atoms: _522  and  _524
REMARK  200  A    between atoms: _524  and  _525
REMARK  201  A    between atoms: _527  and  _529
REMARK  202  A    between atoms: _529  and  _530
REMARK  203  A    between atoms: _529  and  _532
REMARK  204  A    between atoms: _532  and  _533
REMARK  205  A    between atoms: _543  and  _545
REMARK  206  A    between atoms: _545  and  _546
REMARK  207  A    between atoms: _545  and  _548
REMARK  208  A    between atoms: _548  and  _549
REMARK  209  A    between atoms: _552  and  _554
REMARK  210  A    between atoms: _554  and  _555
REMARK  211  A    between atoms: _554  and  _557
REMARK  212  A    between atoms: _557  and  _558
REMARK  213  A    between atoms: _561  and  _563
REMARK  214  A    between atoms: _563  and  _564
REMARK  215  A    between atoms: _563  and  _566
REMARK  216  A    between atoms: _566  and  _567
REMARK  217  A    between atoms: _567  and  _568
REMARK  218  A    between atoms: _568  and  _569
REMARK  219  A    between atoms: _578  and  _580
REMARK  220  A    between atoms: _580  and  _581
REMARK  221  A    between atoms: _580  and  _583
REMARK  222  A    between atoms: _583  and  _584
REMARK  223  A    between atoms: _594  and  _596
REMARK  224  A    between atoms: _596  and  _597
REMARK  225  A    between atoms: _600  and  _602
REMARK  226  A    between atoms: _602  and  _603
REMARK  227  A    between atoms: _602  and  _605
REMARK  228  A    between atoms: _605  and  _606
REMARK  229  A    between atoms: _606  and  _607
REMARK  230  A    between atoms: _610  and  _612
REMARK  231  A    between atoms: _612  and  _613
REMARK  232  A    between atoms: _615  and  _617
REMARK  233  A    between atoms: _617  and  _618
REMARK  234  A    between atoms: _617  and  _620
REMARK  235  A    between atoms: _620  and  _621
REMARK  236  A    between atoms: _626  and  _628
REMARK  237  A    between atoms: _628  and  _629
REMARK  238  A    between atoms: _632  and  _634
REMARK  239  A    between atoms: _634  and  _635
REMARK  240  A    between atoms: _634  and  _637
REMARK  241  A    between atoms: _637  and  _638
REMARK  242  A    between atoms: _641  and  _643
REMARK  243  A    between atoms: _643  and  _644
REMARK  244  A    between atoms: _643  and  _646
REMARK  245  A    between atoms: _646  and  _647
REMARK  246  A    between atoms: _653  and  _655
REMARK  247  A    between atoms: _655  and  _656
REMARK  248  A    between atoms: _655  and  _658
REMARK  249  A    between atoms: _658  and  _659
REMARK  250  A    between atoms: _659  and  _660
REMARK  251  A    between atoms: _663  and  _665
REMARK  252  A    between atoms: _665  and  _666
REMARK  253  A    between atoms: _665  and  _668
REMARK  254  A    between atoms: _668  and  _669
REMARK  255  A    between atoms: _669  and  _670
REMARK  256  A    between atoms: _670  and  _671
REMARK                            x       y       z     vdW  Elec       q    Type
REMARK                         _______ _______ _______ _____ _____    ______ ____
ROOT
ATOM      1  O   HOH     1      -9.172  -2.942  19.609  0.00  0.00    +0.000 OA
ENDROOT
TORSDOF 0
REMARK  Name = ../refined-set-2016/3k00/3k00_pocket.pdb
REMARK  256 active torsions:
REMARK  status: ('A' for Active; 'I' for Inactive)
REMARK    1  A    between atoms: _1  and  _3
REMARK    2  A    between atoms: _3  and  _4
REMARK    3  A    between atoms: _3  and  _6
REMARK    4  A    between atoms: _6  and  _7
REMARK    5  A    between atoms: _10  and  _12
REMARK    6  A    between atoms: _12  and  _13
REMARK    7  A    between atoms: _12  and  _15
REMARK    8  A    between atoms: _15  and  _16
REMARK    9  A    between atoms: _19  and  _21
REMARK   10  A    between atoms: _21  and  _22
REMARK   11  A    between atoms: _21  and  _24
REMARK   12  A    between atoms: _24  and  _25
REMARK   13  A    between atoms: _27  and  _29
REMARK   14  A    between atoms: _29  and  _30
REMARK   15  A    between atoms: _29  and  _32
REMARK   16  A    between atoms: _32  and  _33
REMARK   17  A    between atoms: _38  and  _40
REMARK   18  A    between atoms: _40  and  _41
REMARK   19  A    between atoms: _40  and  _43
REMARK   20  A    between atoms: _43  and  _44
REMARK   21  A    between atoms: _44  and  _45
REMARK   22  A    between atoms: _48  and  _50
REMARK   23  A    between atoms: _50  and  _51
REMARK   24  A    between atoms: _54  and  _56
REMARK   25  A    between atoms: _56  and  _57
REMARK   26  A    between atoms: _56  and  _59
REMARK   27  A    between atoms: _59  and  _60
REMARK   28  A    between atoms: _60  and  _61
REMARK   29  A    between atoms: _64  and  _66
REMARK   30  A    between atoms: _66  and  _67
REMARK   31  A    between atoms: _66  and  _69
REMARK   32  A    between atoms: _69  and  _70
REMARK   33  A    between atoms: _70  and  _71
REMARK   34  A    between atoms: _71  and  _72
REMARK   35  A    between atoms: _72  and  _73
REMARK   36  A    between atoms: _77  and  _79
REMARK   37  A    between atoms: _79  and  _80
REMARK   38  A    between atoms: _79  and  _82
REMARK   39  A    between atoms: _82  and  _83
REMARK   40  A    between atoms: _88  and  _89
REMARK   41  A    between atoms: _91  and  _93
REMARK   42  A    between atoms: _93  and  _94
REMARK   43  A    between atoms: _93  and  _96
REMARK   44  A    between atoms: _96  and  _97
REMARK   45  A    between atoms: _102  and  _104
REMARK   46  A    between atoms: _104  and  _105
REMARK   47  A    between atoms: _104  and  _107
REMARK   48  A    between atoms: _111  and  _112
REMARK   49  A    between atoms: _117  and  _119
REMARK   50  A    between atoms: _119  and  _120
REMARK   51  A    between atoms: _119  and  _122
REMARK   52  A    between atoms: _122  and  _123
REMARK   53  A    between atoms: _129  and  _131
REMARK   54  A    between atoms: _131  and  _132
REMARK   55  A    between atoms: _134  and  _136
REMARK   56  A    between atoms: _136  and  _137
REMARK   57  A    between atoms: _136  and  _139
REMARK   58  A    between atoms: _139  and  _140
REMARK   59  A    between atoms: _140  and  _141
REMARK   60  A    between atoms: _144  and  _146
REMARK   61  A    between atoms: _146  and  _147
REMARK   62  A    between atoms: _150  and  _152
REMARK   63  A    between atoms: _152  and  _153
REMARK   64  A    between atoms: _152  and  _155
REMARK   65  A    between atoms: _155  and  _156
REMARK   66  A    between atoms: _161  and  _163
REMARK   67  A    between atoms: _163  and  _164
REMARK   68  A    between atoms: _167  and  _169
REMARK   69  A    between atoms: _169  and  _170
REMARK   70  A    between atoms: _169  and  _172
REMARK   71  A    between atoms: _172  and  _173
REMARK   72  A    between atoms: _173  and  _174
REMARK   73  A    between atoms: _174  and  _175
REMARK   74  A    between atoms: _175  and  _176
REMARK   75  A    between atoms: _180  and  _182
REMARK   76  A    between atoms: _182  and  _183
REMARK   77  A    between atoms: _182  and  _185
REMARK   78  A    between atoms: _185  and  _186
REMARK   79  A    between atoms: _186  and  _187
REMARK   80  A    between atoms: _187  and  _188
REMARK   81  A    between atoms: _188  and  _189
REMARK   82  A    between atoms: _193  and  _195
REMARK   83  A    between atoms: _195  and  _196
REMARK   84  A    between atoms: _195  and  _198
REMARK   85  A    between atoms: _198  and  _199
REMARK   86  A    between atoms: _199  and  _200
REMARK   87  A    between atoms: _200  and  _201
REMARK   88  A    between atoms: _210  and  _212
REMARK   89  A    between atoms: _212  and  _213
REMARK   90  A    between atoms: _212  and  _215
REMARK   91  A    between atoms: _215  and  _216
REMARK   92  A    between atoms: _216  and  _217
REMARK   93  A    between atoms: _220  and  _222
REMARK   94  A    between atoms: _222  and  _223
REMARK   95  A    between atoms: _222  and  _225
REMARK   96  A    between atoms: _228  and  _230
REMARK   97  A    between atoms: _230  and  _231
REMARK   98  A    between atoms: _234  and  _236
REMARK   99  A    between atoms: _236  and  _237
REMARK  100  A    between atoms: _236  and  _239
REMARK  101  A    between atoms: _239  and  _240
REMARK  102  A    between atoms: _250  and  _252
REMARK  103  A    between atoms: _252  and  _253
REMARK  104  A    between atoms: _252  and  _255
REMARK  105  A    between atoms: _258  and  _260
REMARK  106  A    between atoms: _260  and  _261
REMARK  107  A    between atoms: _260  and  _263
REMARK  108  A    between atoms: _263  and  _264
REMARK  109  A    between atoms: _267  and  _269
REMARK  110  A    between atoms: _269  and  _270
REMARK  111  A    between atoms: _269  and  _272
REMARK  112  A    between atoms: _272  and  _273
REMARK  113  A    between atoms: _279  and  _281
REMARK  114  A    between atoms: _281  and  _282
REMARK  115  A    between atoms: _281  and  _284
REMARK  116  A    between atoms: _284  and  _285
REMARK  117  A    between atoms: _285  and  _286
REMARK  118  A    between atoms: _291  and  _293
REMARK  119  A    between atoms: _293  and  _294
REMARK  120  A    between atoms: _293  and  _296
REMARK  121  A    between atoms: _299  and  _301
REMARK  122  A    between atoms: _301  and  _302
REMARK  123  A    between atoms: _301  and  _304
REMARK  124  A    between atoms: _304  and  _305
REMARK  125  A    between atoms: _308  and  _310
REMARK  126  A    between atoms: _310  and  _311
REMARK  127  A    between atoms: _310  and  _313
REMARK  128  A    between atoms: _313  and  _314
REMARK  129  A    between atoms: _317  and  _319
REMARK  130  A    between atoms: _319  and  _320
REMARK  131  A    between atoms: _319  and  _322
REMARK  132  A    between atoms: _322  and  _323
REMARK  133  A    between atoms: _326  and  _328
REMARK  134  A    between atoms: _328  and  _329
REMARK  135  A    between atoms: _328  and  _331
REMARK  136  A    between atoms: _331  and  _332
REMARK  137  A    between atoms: _335  and  _337
REMARK  138  A    between atoms: _337  and  _338
REMARK  139  A    between atoms: _337  and  _340
REMARK  140  A    between atoms: _340  and  _341
REMARK  141  A    between atoms: _341  and  _342
REMARK  142  A    between atoms: _342  and  _343
REMARK  143  A    between atoms: _352  and  _354
REMARK  144  A    between atoms: _354  and  _355
REMARK  145  A    between atoms: _354  and  _357
REMARK  146  A    between atoms: _357  and  _358
REMARK  147  A    between atoms: _361  and  _363
REMARK  148  A    between atoms: _363  and  _364
REMARK  149  A    between atoms: _363  and  _366
REMARK  150  A    between atoms: _366  and  _367
REMARK  151  A    between atoms: _371  and  _372
REMARK  152  A    between atoms: _377  and  _379
REMARK  153  A    between atoms: _379  and  _380
REMARK  154  A    between atoms: _379  and  _382
REMARK  155  A    between atoms: _382  and  _383
REMARK  156  A    between atoms: _388  and  _389
REMARK  157  A    between atoms: _391  and  _393
REMARK  158  A    between atoms: _393  and  _394
REMARK  159  A    between atoms: _393  and  _396
REMARK  160  A    between atoms: _396  and  _397
REMARK  161  A    between atoms: _407  and  _409
REMARK  162  A    between atoms: _409  and  _410
REMARK  163  A    between atoms: _409  and  _412
REMARK  164  A    between atoms: _412  and  _413
REMARK  165  A    between atoms: _419  and  _421
REMARK  166  A    between atoms: _421  and  _422
REMARK  167  A    between atoms: _421  and  _424
REMARK  168  A    between atoms: _424  and  _425
REMARK  169  A    between atoms: _428  and  _430
REMARK  170  A    between atoms: _430  and  _431
REMARK  171  A    between atoms: _430  and  _433
REMARK  172  A    between atoms: _433  and  _434
REMARK  173  A    between atoms: _444  and  _446
REMARK  174  A    between atoms: _446  and  _447
REMARK  175  A    between atoms: _446  and  _449
REMARK  176  A    between atoms: _449  and  _450
REMARK  177  A    between atoms: _450  and  _451
REMARK  178  A    between atoms: _453  and  _455
REMARK  179  A    between atoms: _455  and  _456
REMARK  180  A    between atoms: _455  and  _458
REMARK  181  A    between atoms: _458  and  _459
REMARK  182  A    between atoms: _464  and  _466
REMARK  183  A    between atoms: _466  and  _467
REMARK  184  A    between atoms: _470  and  _471
REMARK  185  A    between atoms: _476  and  _478
REMARK  186  A    between atoms: _478  and  _479
REMARK  187  A    between atoms: _478  and  _481
REMARK  188  A    between atoms: _481  and  _482
REMARK  189  A    between atoms: _492  and  _494
REMARK  190  A    between atoms: _494  and  _495
REMARK  191  A    between atoms: _499  and  _500
REMARK  192  A    between atoms: _505  and  _507
REMARK  193  A    between atoms: _507  and  _508
REMARK  194  A    between atoms: _507  and  _510
REMARK  195  A    between atoms: _510  and  _511
REMARK  196  A    between atoms: _511  and  _512
REMARK  197  A    between atoms: _517  and  _519
REMARK  198  A    between atoms: _519  and  _520
REMARK  199  A    between atoms: _522  and  _524
REMARK  200  A    between atoms: _524  and  _525
REMARK  201  A    between atoms: _527  and  _529
REMARK  202  A    between atoms: _529  and  _530
REMARK  203  A    between atoms: _529  and  _532
REMARK  204  A    between atoms: _532  and  _533
REMARK  205  A    between atoms: _543  and  _545
REMARK  206  A    between atoms: _545  and  _546
REMARK  207  A    between atoms: _545  and  _548
REMARK  208  A    between atoms: _548  and  _549
REMARK  209  A    between atoms: _552  and  _554
REMARK  210  A    between atoms: _554  and  _555
REMARK  211  A    between atoms: _554  and  _557
REMARK  212  A    between atoms: _557  and  _558
REMARK  213  A    between atoms: _561  and  _563
REMARK  214  A    between atoms: _563  and  _564
REMARK  215  A    between atoms: _563  and  _566
REMARK  216  A    between atoms: _566  and  _567
REMARK  217  A    between atoms: _567  and  _568
REMARK  218  A    between atoms: _568  and  _569
REMARK  219  A    between atoms: _578  and  _580
REMARK  220  A    between atoms: _580  and  _581
REMARK  221  A    between atoms: _580  and  _583
REMARK  222  A    between atoms: _583  and  _584
REMARK  223  A    between atoms: _594  and  _596
REMARK  224  A    between atoms: _596  and  _597
REMARK  225  A    between atoms: _600  and  _602
REMARK  226  A    between atoms: _602  and  _603
REMARK  227  A    between atoms: _602  and  _605
REMARK  228  A    between atoms: _605  and  _606
REMARK  229  A    between atoms: _606  and  _607
REMARK  230  A    between atoms: _610  and  _612
REMARK  231  A    between atoms: _612  and  _613
REMARK  232  A    between atoms: _615  and  _617
REMARK  233  A    between atoms: _617  and  _618
REMARK  234  A    between atoms: _617  and  _620
REMARK  235  A    between atoms: _620  and  _621
REMARK  236  A    between atoms: _626  and  _628
REMARK  237  A    between atoms: _628  and  _629
REMARK  238  A    between atoms: _632  and  _634
REMARK  239  A    between atoms: _634  and  _635
REMARK  240  A    between atoms: _634  and  _637
REMARK  241  A    between atoms: _637  and  _638
REMARK  242  A    between atoms: _641  and  _643
REMARK  243  A    between atoms: _643  and  _644
REMARK  244  A    between atoms: _643  and  _646
REMARK  245  A    between atoms: _646  and  _647
REMARK  246  A    between atoms: _653  and  _655
REMARK  247  A    between atoms: _655  and  _656
REMARK  248  A    between atoms: _655  and  _658
REMARK  249  A    between atoms: _658  and  _659
REMARK  250  A    between atoms: _659  and  _660
REMARK  251  A    between atoms: _663  and  _665
REMARK  252  A    between atoms: _665  and  _666
REMARK  253  A    between atoms: _665  and  _668
REMARK  254  A    between atoms: _668  and  _669
REMARK  255  A    between atoms: _669  and  _670
REMARK  256  A    between atoms: _670  and  _671
REMARK                            x       y       z     vdW  Elec       q    Type
REMARK                         _______ _______ _______ _____ _____    ______ ____
ROOT
ATOM      1  O   HOH     1      -4.923 -18.601  16.744  0.00  0.00    +0.000 OA
ENDROOT
TORSDOF 0
REMARK  Name = ../refined-set-2016/3k00/3k00_pocket.pdb
REMARK  256 active torsions:
REMARK  status: ('A' for Active; 'I' for Inactive)
REMARK    1  A    between atoms: _1  and  _3
REMARK    2  A    between atoms: _3  and  _4
REMARK    3  A    between atoms: _3  and  _6
REMARK    4  A    between atoms: _6  and  _7
REMARK    5  A    between atoms: _10  and  _12
REMARK    6  A    between atoms: _12  and  _13
REMARK    7  A    between atoms: _12  and  _15
REMARK    8  A    between atoms: _15  and  _16
REMARK    9  A    between atoms: _19  and  _21
REMARK   10  A    between atoms: _21  and  _22
REMARK   11  A    between atoms: _21  and  _24
REMARK   12  A    between atoms: _24  and  _25
REMARK   13  A    between atoms: _27  and  _29
REMARK   14  A    between atoms: _29  and  _30
REMARK   15  A    between atoms: _29  and  _32
REMARK   16  A    between atoms: _32  and  _33
REMARK   17  A    between atoms: _38  and  _40
REMARK   18  A    between atoms: _40  and  _41
REMARK   19  A    between atoms: _40  and  _43
REMARK   20  A    between atoms: _43  and  _44
REMARK   21  A    between atoms: _44  and  _45
REMARK   22  A    between atoms: _48  and  _50
REMARK   23  A    between atoms: _50  and  _51
REMARK   24  A    between atoms: _54  and  _56
REMARK   25  A    between atoms: _56  and  _57
REMARK   26  A    between atoms: _56  and  _59
REMARK   27  A    between atoms: _59  and  _60
REMARK   28  A    between atoms: _60  and  _61
REMARK   29  A    between atoms: _64  and  _66
REMARK   30  A    between atoms: _66  and  _67
REMARK   31  A    between atoms: _66  and  _69
REMARK   32  A    between atoms: _69  and  _70
REMARK   33  A    between atoms: _70  and  _71
REMARK   34  A    between atoms: _71  and  _72
REMARK   35  A    between atoms: _72  and  _73
REMARK   36  A    between atoms: _77  and  _79
REMARK   37  A    between atoms: _79  and  _80
REMARK   38  A    between atoms: _79  and  _82
REMARK   39  A    between atoms: _82  and  _83
REMARK   40  A    between atoms: _88  and  _89
REMARK   41  A    between atoms: _91  and  _93
REMARK   42  A    between atoms: _93  and  _94
REMARK   43  A    between atoms: _93  and  _96
REMARK   44  A    between atoms: _96  and  _97
REMARK   45  A    between atoms: _102  and  _104
REMARK   46  A    between atoms: _104  and  _105
REMARK   47  A    between atoms: _104  and  _107
REMARK   48  A    between atoms: _111  and  _112
REMARK   49  A    between atoms: _117  and  _119
REMARK   50  A    between atoms: _119  and  _120
REMARK   51  A    between atoms: _119  and  _122
REMARK   52  A    between atoms: _122  and  _123
REMARK   53  A    between atoms: _129  and  _131
REMARK   54  A    between atoms: _131  and  _132
REMARK   55  A    between atoms: _134  and  _136
REMARK   56  A    between atoms: _136  and  _137
REMARK   57  A    between atoms: _136  and  _139
REMARK   58  A    between atoms: _139  and  _140
REMARK   59  A    between atoms: _140  and  _141
REMARK   60  A    between atoms: _144  and  _146
REMARK   61  A    between atoms: _146  and  _147
REMARK   62  A    between atoms: _150  and  _152
REMARK   63  A    between atoms: _152  and  _153
REMARK   64  A    between atoms: _152  and  _155
REMARK   65  A    between atoms: _155  and  _156
REMARK   66  A    between atoms: _161  and  _163
REMARK   67  A    between atoms: _163  and  _164
REMARK   68  A    between atoms: _167  and  _169
REMARK   69  A    between atoms: _169  and  _170
REMARK   70  A    between atoms: _169  and  _172
REMARK   71  A    between atoms: _172  and  _173
REMARK   72  A    between atoms: _173  and  _174
REMARK   73  A    between atoms: _174  and  _175
REMARK   74  A    between atoms: _175  and  _176
REMARK   75  A    between atoms: _180  and  _182
REMARK   76  A    between atoms: _182  and  _183
REMARK   77  A    between atoms: _182  and  _185
REMARK   78  A    between atoms: _185  and  _186
REMARK   79  A    between atoms: _186  and  _187
REMARK   80  A    between atoms: _187  and  _188
REMARK   81  A    between atoms: _188  and  _189
REMARK   82  A    between atoms: _193  and  _195
REMARK   83  A    between atoms: _195  and  _196
REMARK   84  A    between atoms: _195  and  _198
REMARK   85  A    between atoms: _198  and  _199
REMARK   86  A    between atoms: _199  and  _200
REMARK   87  A    between atoms: _200  and  _201
REMARK   88  A    between atoms: _210  and  _212
REMARK   89  A    between atoms: _212  and  _213
REMARK   90  A    between atoms: _212  and  _215
REMARK   91  A    between atoms: _215  and  _216
REMARK   92  A    between atoms: _216  and  _217
REMARK   93  A    between atoms: _220  and  _222
REMARK   94  A    between atoms: _222  and  _223
REMARK   95  A    between atoms: _222  and  _225
REMARK   96  A    between atoms: _228  and  _230
REMARK   97  A    between atoms: _230  and  _231
REMARK   98  A    between atoms: _234  and  _236
REMARK   99  A    between atoms: _236  and  _237
REMARK  100  A    between atoms: _236  and  _239
REMARK  101  A    between atoms: _239  and  _240
REMARK  102  A    between atoms: _250  and  _252
REMARK  103  A    between atoms: _252  and  _253
REMARK  104  A    between atoms: _252  and  _255
REMARK  105  A    between atoms: _258  and  _260
REMARK  106  A    between atoms: _260  and  _261
REMARK  107  A    between atoms: _260  and  _263
REMARK  108  A    between atoms: _263  and  _264
REMARK  109  A    between atoms: _267  and  _269
REMARK  110  A    between atoms: _269  and  _270
REMARK  111  A    between atoms: _269  and  _272
REMARK  112  A    between atoms: _272  and  _273
REMARK  113  A    between atoms: _279  and  _281
REMARK  114  A    between atoms: _281  and  _282
REMARK  115  A    between atoms: _281  and  _284
REMARK  116  A    between atoms: _284  and  _285
REMARK  117  A    between atoms: _285  and  _286
REMARK  118  A    between atoms: _291  and  _293
REMARK  119  A    between atoms: _293  and  _294
REMARK  120  A    between atoms: _293  and  _296
REMARK  121  A    between atoms: _299  and  _301
REMARK  122  A    between atoms: _301  and  _302
REMARK  123  A    between atoms: _301  and  _304
REMARK  124  A    between atoms: _304  and  _305
REMARK  125  A    between atoms: _308  and  _310
REMARK  126  A    between atoms: _310  and  _311
REMARK  127  A    between atoms: _310  and  _313
REMARK  128  A    between atoms: _313  and  _314
REMARK  129  A    between atoms: _317  and  _319
REMARK  130  A    between atoms: _319  and  _320
REMARK  131  A    between atoms: _319  and  _322
REMARK  132  A    between atoms: _322  and  _323
REMARK  133  A    between atoms: _326  and  _328
REMARK  134  A    between atoms: _328  and  _329
REMARK  135  A    between atoms: _328  and  _331
REMARK  136  A    between atoms: _331  and  _332
REMARK  137  A    between atoms: _335  and  _337
REMARK  138  A    between atoms: _337  and  _338
REMARK  139  A    between atoms: _337  and  _340
REMARK  140  A    between atoms: _340  and  _341
REMARK  141  A    between atoms: _341  and  _342
REMARK  142  A    between atoms: _342  and  _343
REMARK  143  A    between atoms: _352  and  _354
REMARK  144  A    between atoms: _354  and  _355
REMARK  145  A    between atoms: _354  and  _357
REMARK  146  A    between atoms: _357  and  _358
REMARK  147  A    between atoms: _361  and  _363
REMARK  148  A    between atoms: _363  and  _364
REMARK  149  A    between atoms: _363  and  _366
REMARK  150  A    between atoms: _366  and  _367
REMARK  151  A    between atoms: _371  and  _372
REMARK  152  A    between atoms: _377  and  _379
REMARK  153  A    between atoms: _379  and  _380
REMARK  154  A    between atoms: _379  and  _382
REMARK  155  A    between atoms: _382  and  _383
REMARK  156  A    between atoms: _388  and  _389
REMARK  157  A    between atoms: _391  and  _393
REMARK  158  A    between atoms: _393  and  _394
REMARK  159  A    between atoms: _393  and  _396
REMARK  160  A    between atoms: _396  and  _397
REMARK  161  A    between atoms: _407  and  _409
REMARK  162  A    between atoms: _409  and  _410
REMARK  163  A    between atoms: _409  and  _412
REMARK  164  A    between atoms: _412  and  _413
REMARK  165  A    between atoms: _419  and  _421
REMARK  166  A    between atoms: _421  and  _422
REMARK  167  A    between atoms: _421  and  _424
REMARK  168  A    between atoms: _424  and  _425
REMARK  169  A    between atoms: _428  and  _430
REMARK  170  A    between atoms: _430  and  _431
REMARK  171  A    between atoms: _430  and  _433
REMARK  172  A    between atoms: _433  and  _434
REMARK  173  A    between atoms: _444  and  _446
REMARK  174  A    between atoms: _446  and  _447
REMARK  175  A    between atoms: _446  and  _449
REMARK  176  A    between atoms: _449  and  _450
REMARK  177  A    between atoms: _450  and  _451
REMARK  178  A    between atoms: _453  and  _455
REMARK  179  A    between atoms: _455  and  _456
REMARK  180  A    between atoms: _455  and  _458
REMARK  181  A    between atoms: _458  and  _459
REMARK  182  A    between atoms: _464  and  _466
REMARK  183  A    between atoms: _466  and  _467
REMARK  184  A    between atoms: _470  and  _471
REMARK  185  A    between atoms: _476  and  _478
REMARK  186  A    between atoms: _478  and  _479
REMARK  187  A    between atoms: _478  and  _481
REMARK  188  A    between atoms: _481  and  _482
REMARK  189  A    between atoms: _492  and  _494
REMARK  190  A    between atoms: _494  and  _495
REMARK  191  A    between atoms: _499  and  _500
REMARK  192  A    between atoms: _505  and  _507
REMARK  193  A    between atoms: _507  and  _508
REMARK  194  A    between atoms: _507  and  _510
REMARK  195  A    between atoms: _510  and  _511
REMARK  196  A    between atoms: _511  and  _512
REMARK  197  A    between atoms: _517  and  _519
REMARK  198  A    between atoms: _519  and  _520
REMARK  199  A    between atoms: _522  and  _524
REMARK  200  A    between atoms: _524  and  _525
REMARK  201  A    between atoms: _527  and  _529
REMARK  202  A    between atoms: _529  and  _530
REMARK  203  A    between atoms: _529  and  _532
REMARK  204  A    between atoms: _532  and  _533
REMARK  205  A    between atoms: _543  and  _545
REMARK  206  A    between atoms: _545  and  _546
REMARK  207  A    between atoms: _545  and  _548
REMARK  208  A    between atoms: _548  and  _549
REMARK  209  A    between atoms: _552  and  _554
REMARK  210  A    between atoms: _554  and  _555
REMARK  211  A    between atoms: _554  and  _557
REMARK  212  A    between atoms: _557  and  _558
REMARK  213  A    between atoms: _561  and  _563
REMARK  214  A    between atoms: _563  and  _564
REMARK  215  A    between atoms: _563  and  _566
REMARK  216  A    between atoms: _566  and  _567
REMARK  217  A    between atoms: _567  and  _568
REMARK  218  A    between atoms: _568  and  _569
REMARK  219  A    between atoms: _578  and  _580
REMARK  220  A    between atoms: _580  and  _581
REMARK  221  A    between atoms: _580  and  _583
REMARK  222  A    between atoms: _583  and  _584
REMARK  223  A    between atoms: _594  and  _596
REMARK  224  A    between atoms: _596  and  _597
REMARK  225  A    between atoms: _600  and  _602
REMARK  226  A    between atoms: _602  and  _603
REMARK  227  A    between atoms: _602  and  _605
REMARK  228  A    between atoms: _605  and  _606
REMARK  229  A    between atoms: _606  and  _607
REMARK  230  A    between atoms: _610  and  _612
REMARK  231  A    between atoms: _612  and  _613
REMARK  232  A    between atoms: _615  and  _617
REMARK  233  A    between atoms: _617  and  _618
REMARK  234  A    between atoms: _617  and  _620
REMARK  235  A    between atoms: _620  and  _621
REMARK  236  A    between atoms: _626  and  _628
REMARK  237  A    between atoms: _628  and  _629
REMARK  238  A    between atoms: _632  and  _634
REMARK  239  A    between atoms: _634  and  _635
REMARK  240  A    between atoms: _634  and  _637
REMARK  241  A    between atoms: _637  and  _638
REMARK  242  A    between atoms: _641  and  _643
REMARK  243  A    between atoms: _643  and  _644
REMARK  244  A    between atoms: _643  and  _646
REMARK  245  A    between atoms: _646  and  _647
REMARK  246  A    between atoms: _653  and  _655
REMARK  247  A    between atoms: _655  and  _656
REMARK  248  A    between atoms: _655  and  _658
REMARK  249  A    between atoms: _658  and  _659
REMARK  250  A    between atoms: _659  and  _660
REMARK  251  A    between atoms: _663  and  _665
REMARK  252  A    between atoms: _665  and  _666
REMARK  253  A    between atoms: _665  and  _668
REMARK  254  A    between atoms: _668  and  _669
REMARK  255  A    between atoms: _669  and  _670
REMARK  256  A    between atoms: _670  and  _671
REMARK                            x       y       z     vdW  Elec       q    Type
REMARK                         _______ _______ _______ _____ _____    ______ ____
ROOT
ATOM      1  O   HOH     1       2.877 -13.840  26.788  0.00  0.00    +0.000 OA
ENDROOT
TORSDOF 0
REMARK  Name = ../refined-set-2016/3k00/3k00_pocket.pdb
REMARK  256 active torsions:
REMARK  status: ('A' for Active; 'I' for Inactive)
REMARK    1  A    between atoms: _1  and  _3
REMARK    2  A    between atoms: _3  and  _4
REMARK    3  A    between atoms: _3  and  _6
REMARK    4  A    between atoms: _6  and  _7
REMARK    5  A    between atoms: _10  and  _12
REMARK    6  A    between atoms: _12  and  _13
REMARK    7  A    between atoms: _12  and  _15
REMARK    8  A    between atoms: _15  and  _16
REMARK    9  A    between atoms: _19  and  _21
REMARK   10  A    between atoms: _21  and  _22
REMARK   11  A    between atoms: _21  and  _24
REMARK   12  A    between atoms: _24  and  _25
REMARK   13  A    between atoms: _27  and  _29
REMARK   14  A    between atoms: _29  and  _30
REMARK   15  A    between atoms: _29  and  _32
REMARK   16  A    between atoms: _32  and  _33
REMARK   17  A    between atoms: _38  and  _40
REMARK   18  A    between atoms: _40  and  _41
REMARK   19  A    between atoms: _40  and  _43
REMARK   20  A    between atoms: _43  and  _44
REMARK   21  A    between atoms: _44  and  _45
REMARK   22  A    between atoms: _48  and  _50
REMARK   23  A    between atoms: _50  and  _51
REMARK   24  A    between atoms: _54  and  _56
REMARK   25  A    between atoms: _56  and  _57
REMARK   26  A    between atoms: _56  and  _59
REMARK   27  A    between atoms: _59  and  _60
REMARK   28  A    between atoms: _60  and  _61
REMARK   29  A    between atoms: _64  and  _66
REMARK   30  A    between atoms: _66  and  _67
REMARK   31  A    between atoms: _66  and  _69
REMARK   32  A    between atoms: _69  and  _70
REMARK   33  A    between atoms: _70  and  _71
REMARK   34  A    between atoms: _71  and  _72
REMARK   35  A    between atoms: _72  and  _73
REMARK   36  A    between atoms: _77  and  _79
REMARK   37  A    between atoms: _79  and  _80
REMARK   38  A    between atoms: _79  and  _82
REMARK   39  A    between atoms: _82  and  _83
REMARK   40  A    between atoms: _88  and  _89
REMARK   41  A    between atoms: _91  and  _93
REMARK   42  A    between atoms: _93  and  _94
REMARK   43  A    between atoms: _93  and  _96
REMARK   44  A    between atoms: _96  and  _97
REMARK   45  A    between atoms: _102  and  _104
REMARK   46  A    between atoms: _104  and  _105
REMARK   47  A    between atoms: _104  and  _107
REMARK   48  A    between atoms: _111  and  _112
REMARK   49  A    between atoms: _117  and  _119
REMARK   50  A    between atoms: _119  and  _120
REMARK   51  A    between atoms: _119  and  _122
REMARK   52  A    between atoms: _122  and  _123
REMARK   53  A    between atoms: _129  and  _131
REMARK   54  A    between atoms: _131  and  _132
REMARK   55  A    between atoms: _134  and  _136
REMARK   56  A    between atoms: _136  and  _137
REMARK   57  A    between atoms: _136  and  _139
REMARK   58  A    between atoms: _139  and  _140
REMARK   59  A    between atoms: _140  and  _141
REMARK   60  A    between atoms: _144  and  _146
REMARK   61  A    between atoms: _146  and  _147
REMARK   62  A    between atoms: _150  and  _152
REMARK   63  A    between atoms: _152  and  _153
REMARK   64  A    between atoms: _152  and  _155
REMARK   65  A    between atoms: _155  and  _156
REMARK   66  A    between atoms: _161  and  _163
REMARK   67  A    between atoms: _163  and  _164
REMARK   68  A    between atoms: _167  and  _169
REMARK   69  A    between atoms: _169  and  _170
REMARK   70  A    between atoms: _169  and  _172
REMARK   71  A    between atoms: _172  and  _173
REMARK   72  A    between atoms: _173  and  _174
REMARK   73  A    between atoms: _174  and  _175
REMARK   74  A    between atoms: _175  and  _176
REMARK   75  A    between atoms: _180  and  _182
REMARK   76  A    between atoms: _182  and  _183
REMARK   77  A    between atoms: _182  and  _185
REMARK   78  A    between atoms: _185  and  _186
REMARK   79  A    between atoms: _186  and  _187
REMARK   80  A    between atoms: _187  and  _188
REMARK   81  A    between atoms: _188  and  _189
REMARK   82  A    between atoms: _193  and  _195
REMARK   83  A    between atoms: _195  and  _196
REMARK   84  A    between atoms: _195  and  _198
REMARK   85  A    between atoms: _198  and  _199
REMARK   86  A    between atoms: _199  and  _200
REMARK   87  A    between atoms: _200  and  _201
REMARK   88  A    between atoms: _210  and  _212
REMARK   89  A    between atoms: _212  and  _213
REMARK   90  A    between atoms: _212  and  _215
REMARK   91  A    between atoms: _215  and  _216
REMARK   92  A    between atoms: _216  and  _217
REMARK   93  A    between atoms: _220  and  _222
REMARK   94  A    between atoms: _222  and  _223
REMARK   95  A    between atoms: _222  and  _225
REMARK   96  A    between atoms: _228  and  _230
REMARK   97  A    between atoms: _230  and  _231
REMARK   98  A    between atoms: _234  and  _236
REMARK   99  A    between atoms: _236  and  _237
REMARK  100  A    between atoms: _236  and  _239
REMARK  101  A    between atoms: _239  and  _240
REMARK  102  A    between atoms: _250  and  _252
REMARK  103  A    between atoms: _252  and  _253
REMARK  104  A    between atoms: _252  and  _255
REMARK  105  A    between atoms: _258  and  _260
REMARK  106  A    between atoms: _260  and  _261
REMARK  107  A    between atoms: _260  and  _263
REMARK  108  A    between atoms: _263  and  _264
REMARK  109  A    between atoms: _267  and  _269
REMARK  110  A    between atoms: _269  and  _270
REMARK  111  A    between atoms: _269  and  _272
REMARK  112  A    between atoms: _272  and  _273
REMARK  113  A    between atoms: _279  and  _281
REMARK  114  A    between atoms: _281  and  _282
REMARK  115  A    between atoms: _281  and  _284
REMARK  116  A    between atoms: _284  and  _285
REMARK  117  A    between atoms: _285  and  _286
REMARK  118  A    between atoms: _291  and  _293
REMARK  119  A    between atoms: _293  and  _294
REMARK  120  A    between atoms: _293  and  _296
REMARK  121  A    between atoms: _299  and  _301
REMARK  122  A    between atoms: _301  and  _302
REMARK  123  A    between atoms: _301  and  _304
REMARK  124  A    between atoms: _304  and  _305
REMARK  125  A    between atoms: _308  and  _310
REMARK  126  A    between atoms: _310  and  _311
REMARK  127  A    between atoms: _310  and  _313
REMARK  128  A    between atoms: _313  and  _314
REMARK  129  A    between atoms: _317  and  _319
REMARK  130  A    between atoms: _319  and  _320
REMARK  131  A    between atoms: _319  and  _322
REMARK  132  A    between atoms: _322  and  _323
REMARK  133  A    between atoms: _326  and  _328
REMARK  134  A    between atoms: _328  and  _329
REMARK  135  A    between atoms: _328  and  _331
REMARK  136  A    between atoms: _331  and  _332
REMARK  137  A    between atoms: _335  and  _337
REMARK  138  A    between atoms: _337  and  _338
REMARK  139  A    between atoms: _337  and  _340
REMARK  140  A    between atoms: _340  and  _341
REMARK  141  A    between atoms: _341  and  _342
REMARK  142  A    between atoms: _342  and  _343
REMARK  143  A    between atoms: _352  and  _354
REMARK  144  A    between atoms: _354  and  _355
REMARK  145  A    between atoms: _354  and  _357
REMARK  146  A    between atoms: _357  and  _358
REMARK  147  A    between atoms: _361  and  _363
REMARK  148  A    between atoms: _363  and  _364
REMARK  149  A    between atoms: _363  and  _366
REMARK  150  A    between atoms: _366  and  _367
REMARK  151  A    between atoms: _371  and  _372
REMARK  152  A    between atoms: _377  and  _379
REMARK  153  A    between atoms: _379  and  _380
REMARK  154  A    between atoms: _379  and  _382
REMARK  155  A    between atoms: _382  and  _383
REMARK  156  A    between atoms: _388  and  _389
REMARK  157  A    between atoms: _391  and  _393
REMARK  158  A    between atoms: _393  and  _394
REMARK  159  A    between atoms: _393  and  _396
REMARK  160  A    between atoms: _396  and  _397
REMARK  161  A    between atoms: _407  and  _409
REMARK  162  A    between atoms: _409  and  _410
REMARK  163  A    between atoms: _409  and  _412
REMARK  164  A    between atoms: _412  and  _413
REMARK  165  A    between atoms: _419  and  _421
REMARK  166  A    between atoms: _421  and  _422
REMARK  167  A    between atoms: _421  and  _424
REMARK  168  A    between atoms: _424  and  _425
REMARK  169  A    between atoms: _428  and  _430
REMARK  170  A    between atoms: _430  and  _431
REMARK  171  A    between atoms: _430  and  _433
REMARK  172  A    between atoms: _433  and  _434
REMARK  173  A    between atoms: _444  and  _446
REMARK  174  A    between atoms: _446  and  _447
REMARK  175  A    between atoms: _446  and  _449
REMARK  176  A    between atoms: _449  and  _450
REMARK  177  A    between atoms: _450  and  _451
REMARK  178  A    between atoms: _453  and  _455
REMARK  179  A    between atoms: _455  and  _456
REMARK  180  A    between atoms: _455  and  _458
REMARK  181  A    between atoms: _458  and  _459
REMARK  182  A    between atoms: _464  and  _466
REMARK  183  A    between atoms: _466  and  _467
REMARK  184  A    between atoms: _470  and  _471
REMARK  185  A    between atoms: _476  and  _478
REMARK  186  A    between atoms: _478  and  _479
REMARK  187  A    between atoms: _478  and  _481
REMARK  188  A    between atoms: _481  and  _482
REMARK  189  A    between atoms: _492  and  _494
REMARK  190  A    between atoms: _494  and  _495
REMARK  191  A    between atoms: _499  and  _500
REMARK  192  A    between atoms: _505  and  _507
REMARK  193  A    between atoms: _507  and  _508
REMARK  194  A    between atoms: _507  and  _510
REMARK  195  A    between atoms: _510  and  _511
REMARK  196  A    between atoms: _511  and  _512
REMARK  197  A    between atoms: _517  and  _519
REMARK  198  A    between atoms: _519  and  _520
REMARK  199  A    between atoms: _522  and  _524
REMARK  200  A    between atoms: _524  and  _525
REMARK  201  A    between atoms: _527  and  _529
REMARK  202  A    between atoms: _529  and  _530
REMARK  203  A    between atoms: _529  and  _532
REMARK  204  A    between atoms: _532  and  _533
REMARK  205  A    between atoms: _543  and  _545
REMARK  206  A    between atoms: _545  and  _546
REMARK  207  A    between atoms: _545  and  _548
REMARK  208  A    between atoms: _548  and  _549
REMARK  209  A    between atoms: _552  and  _554
REMARK  210  A    between atoms: _554  and  _555
REMARK  211  A    between atoms: _554  and  _557
REMARK  212  A    between atoms: _557  and  _558
REMARK  213  A    between atoms: _561  and  _563
REMARK  214  A    between atoms: _563  and  _564
REMARK  215  A    between atoms: _563  and  _566
REMARK  216  A    between atoms: _566  and  _567
REMARK  217  A    between atoms: _567  and  _568
REMARK  218  A    between atoms: _568  and  _569
REMARK  219  A    between atoms: _578  and  _580
REMARK  220  A    between atoms: _580  and  _581
REMARK  221  A    between atoms: _580  and  _583
REMARK  222  A    between atoms: _583  and  _584
REMARK  223  A    between atoms: _594  and  _596
REMARK  224  A    between atoms: _596  and  _597
REMARK  225  A    between atoms: _600  and  _602
REMARK  226  A    between atoms: _602  and  _603
REMARK  227  A    between atoms: _602  and  _605
REMARK  228  A    between atoms: _605  and  _606
REMARK  229  A    between atoms: _606  and  _607
REMARK  230  A    between atoms: _610  and  _612
REMARK  231  A    between atoms: _612  and  _613
REMARK  232  A    between atoms: _615  and  _617
REMARK  233  A    between atoms: _617  and  _618
REMARK  234  A    between atoms: _617  and  _620
REMARK  235  A    between atoms: _620  and  _621
REMARK  236  A    between atoms: _626  and  _628
REMARK  237  A    between atoms: _628  and  _629
REMARK  238  A    between atoms: _632  and  _634
REMARK  239  A    between atoms: _634  and  _635
REMARK  240  A    between atoms: _634  and  _637
REMARK  241  A    between atoms: _637  and  _638
REMARK  242  A    between atoms: _641  and  _643
REMARK  243  A    between atoms: _643  and  _644
REMARK  244  A    between atoms: _643  and  _646
REMARK  245  A    between atoms: _646  and  _647
REMARK  246  A    between atoms: _653  and  _655
REMARK  247  A    between atoms: _655  and  _656
REMARK  248  A    between atoms: _655  and  _658
REMARK  249  A    between atoms: _658  and  _659
REMARK  250  A    between atoms: _659  and  _660
REMARK  251  A    between atoms: _663  and  _665
REMARK  252  A    between atoms: _665  and  _666
REMARK  253  A    between atoms: _665  and  _668
REMARK  254  A    between atoms: _668  and  _669
REMARK  255  A    between atoms: _669  and  _670
REMARK  256  A    between atoms: _670  and  _671
REMARK                            x       y       z     vdW  Elec       q    Type
REMARK                         _______ _______ _______ _____ _____    ______ ____
ROOT
ATOM      1  O   HOH     1       5.116  -3.319  25.264  0.00  0.00    +0.000 OA
ENDROOT
TORSDOF 0
REMARK  Name = ../refined-set-2016/3k00/3k00_pocket.pdb
REMARK  256 active torsions:
REMARK  status: ('A' for Active; 'I' for Inactive)
REMARK    1  A    between atoms: _1  and  _3
REMARK    2  A    between atoms: _3  and  _4
REMARK    3  A    between atoms: _3  and  _6
REMARK    4  A    between atoms: _6  and  _7
REMARK    5  A    between atoms: _10  and  _12
REMARK    6  A    between atoms: _12  and  _13
REMARK    7  A    between atoms: _12  and  _15
REMARK    8  A    between atoms: _15  and  _16
REMARK    9  A    between atoms: _19  and  _21
REMARK   10  A    between atoms: _21  and  _22
REMARK   11  A    between atoms: _21  and  _24
REMARK   12  A    between atoms: _24  and  _25
REMARK   13  A    between atoms: _27  and  _29
REMARK   14  A    between atoms: _29  and  _30
REMARK   15  A    between atoms: _29  and  _32
REMARK   16  A    between atoms: _32  and  _33
REMARK   17  A    between atoms: _38  and  _40
REMARK   18  A    between atoms: _40  and  _41
REMARK   19  A    between atoms: _40  and  _43
REMARK   20  A    between atoms: _43  and  _44
REMARK   21  A    between atoms: _44  and  _45
REMARK   22  A    between atoms: _48  and  _50
REMARK   23  A    between atoms: _50  and  _51
REMARK   24  A    between atoms: _54  and  _56
REMARK   25  A    between atoms: _56  and  _57
REMARK   26  A    between atoms: _56  and  _59
REMARK   27  A    between atoms: _59  and  _60
REMARK   28  A    between atoms: _60  and  _61
REMARK   29  A    between atoms: _64  and  _66
REMARK   30  A    between atoms: _66  and  _67
REMARK   31  A    between atoms: _66  and  _69
REMARK   32  A    between atoms: _69  and  _70
REMARK   33  A    between atoms: _70  and  _71
REMARK   34  A    between atoms: _71  and  _72
REMARK   35  A    between atoms: _72  and  _73
REMARK   36  A    between atoms: _77  and  _79
REMARK   37  A    between atoms: _79  and  _80
REMARK   38  A    between atoms: _79  and  _82
REMARK   39  A    between atoms: _82  and  _83
REMARK   40  A    between atoms: _88  and  _89
REMARK   41  A    between atoms: _91  and  _93
REMARK   42  A    between atoms: _93  and  _94
REMARK   43  A    between atoms: _93  and  _96
REMARK   44  A    between atoms: _96  and  _97
REMARK   45  A    between atoms: _102  and  _104
REMARK   46  A    between atoms: _104  and  _105
REMARK   47  A    between atoms: _104  and  _107
REMARK   48  A    between atoms: _111  and  _112
REMARK   49  A    between atoms: _117  and  _119
REMARK   50  A    between atoms: _119  and  _120
REMARK   51  A    between atoms: _119  and  _122
REMARK   52  A    between atoms: _122  and  _123
REMARK   53  A    between atoms: _129  and  _131
REMARK   54  A    between atoms: _131  and  _132
REMARK   55  A    between atoms: _134  and  _136
REMARK   56  A    between atoms: _136  and  _137
REMARK   57  A    between atoms: _136  and  _139
REMARK   58  A    between atoms: _139  and  _140
REMARK   59  A    between atoms: _140  and  _141
REMARK   60  A    between atoms: _144  and  _146
REMARK   61  A    between atoms: _146  and  _147
REMARK   62  A    between atoms: _150  and  _152
REMARK   63  A    between atoms: _152  and  _153
REMARK   64  A    between atoms: _152  and  _155
REMARK   65  A    between atoms: _155  and  _156
REMARK   66  A    between atoms: _161  and  _163
REMARK   67  A    between atoms: _163  and  _164
REMARK   68  A    between atoms: _167  and  _169
REMARK   69  A    between atoms: _169  and  _170
REMARK   70  A    between atoms: _169  and  _172
REMARK   71  A    between atoms: _172  and  _173
REMARK   72  A    between atoms: _173  and  _174
REMARK   73  A    between atoms: _174  and  _175
REMARK   74  A    between atoms: _175  and  _176
REMARK   75  A    between atoms: _180  and  _182
REMARK   76  A    between atoms: _182  and  _183
REMARK   77  A    between atoms: _182  and  _185
REMARK   78  A    between atoms: _185  and  _186
REMARK   79  A    between atoms: _186  and  _187
REMARK   80  A    between atoms: _187  and  _188
REMARK   81  A    between atoms: _188  and  _189
REMARK   82  A    between atoms: _193  and  _195
REMARK   83  A    between atoms: _195  and  _196
REMARK   84  A    between atoms: _195  and  _198
REMARK   85  A    between atoms: _198  and  _199
REMARK   86  A    between atoms: _199  and  _200
REMARK   87  A    between atoms: _200  and  _201
REMARK   88  A    between atoms: _210  and  _212
REMARK   89  A    between atoms: _212  and  _213
REMARK   90  A    between atoms: _212  and  _215
REMARK   91  A    between atoms: _215  and  _216
REMARK   92  A    between atoms: _216  and  _217
REMARK   93  A    between atoms: _220  and  _222
REMARK   94  A    between atoms: _222  and  _223
REMARK   95  A    between atoms: _222  and  _225
REMARK   96  A    between atoms: _228  and  _230
REMARK   97  A    between atoms: _230  and  _231
REMARK   98  A    between atoms: _234  and  _236
REMARK   99  A    between atoms: _236  and  _237
REMARK  100  A    between atoms: _236  and  _239
REMARK  101  A    between atoms: _239  and  _240
REMARK  102  A    between atoms: _250  and  _252
REMARK  103  A    between atoms: _252  and  _253
REMARK  104  A    between atoms: _252  and  _255
REMARK  105  A    between atoms: _258  and  _260
REMARK  106  A    between atoms: _260  and  _261
REMARK  107  A    between atoms: _260  and  _263
REMARK  108  A    between atoms: _263  and  _264
REMARK  109  A    between atoms: _267  and  _269
REMARK  110  A    between atoms: _269  and  _270
REMARK  111  A    between atoms: _269  and  _272
REMARK  112  A    between atoms: _272  and  _273
REMARK  113  A    between atoms: _279  and  _281
REMARK  114  A    between atoms: _281  and  _282
REMARK  115  A    between atoms: _281  and  _284
REMARK  116  A    between atoms: _284  and  _285
REMARK  117  A    between atoms: _285  and  _286
REMARK  118  A    between atoms: _291  and  _293
REMARK  119  A    between atoms: _293  and  _294
REMARK  120  A    between atoms: _293  and  _296
REMARK  121  A    between atoms: _299  and  _301
REMARK  122  A    between atoms: _301  and  _302
REMARK  123  A    between atoms: _301  and  _304
REMARK  124  A    between atoms: _304  and  _305
REMARK  125  A    between atoms: _308  and  _310
REMARK  126  A    between atoms: _310  and  _311
REMARK  127  A    between atoms: _310  and  _313
REMARK  128  A    between atoms: _313  and  _314
REMARK  129  A    between atoms: _317  and  _319
REMARK  130  A    between atoms: _319  and  _320
REMARK  131  A    between atoms: _319  and  _322
REMARK  132  A    between atoms: _322  and  _323
REMARK  133  A    between atoms: _326  and  _328
REMARK  134  A    between atoms: _328  and  _329
REMARK  135  A    between atoms: _328  and  _331
REMARK  136  A    between atoms: _331  and  _332
REMARK  137  A    between atoms: _335  and  _337
REMARK  138  A    between atoms: _337  and  _338
REMARK  139  A    between atoms: _337  and  _340
REMARK  140  A    between atoms: _340  and  _341
REMARK  141  A    between atoms: _341  and  _342
REMARK  142  A    between atoms: _342  and  _343
REMARK  143  A    between atoms: _352  and  _354
REMARK  144  A    between atoms: _354  and  _355
REMARK  145  A    between atoms: _354  and  _357
REMARK  146  A    between atoms: _357  and  _358
REMARK  147  A    between atoms: _361  and  _363
REMARK  148  A    between atoms: _363  and  _364
REMARK  149  A    between atoms: _363  and  _366
REMARK  150  A    between atoms: _366  and  _367
REMARK  151  A    between atoms: _371  and  _372
REMARK  152  A    between atoms: _377  and  _379
REMARK  153  A    between atoms: _379  and  _380
REMARK  154  A    between atoms: _379  and  _382
REMARK  155  A    between atoms: _382  and  _383
REMARK  156  A    between atoms: _388  and  _389
REMARK  157  A    between atoms: _391  and  _393
REMARK  158  A    between atoms: _393  and  _394
REMARK  159  A    between atoms: _393  and  _396
REMARK  160  A    between atoms: _396  and  _397
REMARK  161  A    between atoms: _407  and  _409
REMARK  162  A    between atoms: _409  and  _410
REMARK  163  A    between atoms: _409  and  _412
REMARK  164  A    between atoms: _412  and  _413
REMARK  165  A    between atoms: _419  and  _421
REMARK  166  A    between atoms: _421  and  _422
REMARK  167  A    between atoms: _421  and  _424
REMARK  168  A    between atoms: _424  and  _425
REMARK  169  A    between atoms: _428  and  _430
REMARK  170  A    between atoms: _430  and  _431
REMARK  171  A    between atoms: _430  and  _433
REMARK  172  A    between atoms: _433  and  _434
REMARK  173  A    between atoms: _444  and  _446
REMARK  174  A    between atoms: _446  and  _447
REMARK  175  A    between atoms: _446  and  _449
REMARK  176  A    between atoms: _449  and  _450
REMARK  177  A    between atoms: _450  and  _451
REMARK  178  A    between atoms: _453  and  _455
REMARK  179  A    between atoms: _455  and  _456
REMARK  180  A    between atoms: _455  and  _458
REMARK  181  A    between atoms: _458  and  _459
REMARK  182  A    between atoms: _464  and  _466
REMARK  183  A    between atoms: _466  and  _467
REMARK  184  A    between atoms: _470  and  _471
REMARK  185  A    between atoms: _476  and  _478
REMARK  186  A    between atoms: _478  and  _479
REMARK  187  A    between atoms: _478  and  _481
REMARK  188  A    between atoms: _481  and  _482
REMARK  189  A    between atoms: _492  and  _494
REMARK  190  A    between atoms: _494  and  _495
REMARK  191  A    between atoms: _499  and  _500
REMARK  192  A    between atoms: _505  and  _507
REMARK  193  A    between atoms: _507  and  _508
REMARK  194  A    between atoms: _507  and  _510
REMARK  195  A    between atoms: _510  and  _511
REMARK  196  A    between atoms: _511  and  _512
REMARK  197  A    between atoms: _517  and  _519
REMARK  198  A    between atoms: _519  and  _520
REMARK  199  A    between atoms: _522  and  _524
REMARK  200  A    between atoms: _524  and  _525
REMARK  201  A    between atoms: _527  and  _529
REMARK  202  A    between atoms: _529  and  _530
REMARK  203  A    between atoms: _529  and  _532
REMARK  204  A    between atoms: _532  and  _533
REMARK  205  A    between atoms: _543  and  _545
REMARK  206  A    between atoms: _545  and  _546
REMARK  207  A    between atoms: _545  and  _548
REMARK  208  A    between atoms: _548  and  _549
REMARK  209  A    between atoms: _552  and  _554
REMARK  210  A    between atoms: _554  and  _555
REMARK  211  A    between atoms: _554  and  _557
REMARK  212  A    between atoms: _557  and  _558
REMARK  213  A    between atoms: _561  and  _563
REMARK  214  A    between atoms: _563  and  _564
REMARK  215  A    between atoms: _563  and  _566
REMARK  216  A    between atoms: _566  and  _567
REMARK  217  A    between atoms: _567  and  _568
REMARK  218  A    between atoms: _568  and  _569
REMARK  219  A    between atoms: _578  and  _580
REMARK  220  A    between atoms: _580  and  _581
REMARK  221  A    between atoms: _580  and  _583
REMARK  222  A    between atoms: _583  and  _584
REMARK  223  A    between atoms: _594  and  _596
REMARK  224  A    between atoms: _596  and  _597
REMARK  225  A    between atoms: _600  and  _602
REMARK  226  A    between atoms: _602  and  _603
REMARK  227  A    between atoms: _602  and  _605
REMARK  228  A    between atoms: _605  and  _606
REMARK  229  A    between atoms: _606  and  _607
REMARK  230  A    between atoms: _610  and  _612
REMARK  231  A    between atoms: _612  and  _613
REMARK  232  A    between atoms: _615  and  _617
REMARK  233  A    between atoms: _617  and  _618
REMARK  234  A    between atoms: _617  and  _620
REMARK  235  A    between atoms: _620  and  _621
REMARK  236  A    between atoms: _626  and  _628
REMARK  237  A    between atoms: _628  and  _629
REMARK  238  A    between atoms: _632  and  _634
REMARK  239  A    between atoms: _634  and  _635
REMARK  240  A    between atoms: _634  and  _637
REMARK  241  A    between atoms: _637  and  _638
REMARK  242  A    between atoms: _641  and  _643
REMARK  243  A    between atoms: _643  and  _644
REMARK  244  A    between atoms: _643  and  _646
REMARK  245  A    between atoms: _646  and  _647
REMARK  246  A    between atoms: _653  and  _655
REMARK  247  A    between atoms: _655  and  _656
REMARK  248  A    between atoms: _655  and  _658
REMARK  249  A    between atoms: _658  and  _659
REMARK  250  A    between atoms: _659  and  _660
REMARK  251  A    between atoms: _663  and  _665
REMARK  252  A    between atoms: _665  and  _666
REMARK  253  A    between atoms: _665  and  _668
REMARK  254  A    between atoms: _668  and  _669
REMARK  255  A    between atoms: _669  and  _670
REMARK  256  A    between atoms: _670  and  _671
REMARK                            x       y       z     vdW  Elec       q    Type
REMARK                         _______ _______ _______ _____ _____    ______ ____
ROOT
ATOM      1  O   HOH     1       0.701 -15.833  25.080  0.00  0.00    +0.000 OA
ENDROOT
TORSDOF 0
REMARK  Name = ../refined-set-2016/3k00/3k00_pocket.pdb
REMARK  256 active torsions:
REMARK  status: ('A' for Active; 'I' for Inactive)
REMARK    1  A    between atoms: _1  and  _3
REMARK    2  A    between atoms: _3  and  _4
REMARK    3  A    between atoms: _3  and  _6
REMARK    4  A    between atoms: _6  and  _7
REMARK    5  A    between atoms: _10  and  _12
REMARK    6  A    between atoms: _12  and  _13
REMARK    7  A    between atoms: _12  and  _15
REMARK    8  A    between atoms: _15  and  _16
REMARK    9  A    between atoms: _19  and  _21
REMARK   10  A    between atoms: _21  and  _22
REMARK   11  A    between atoms: _21  and  _24
REMARK   12  A    between atoms: _24  and  _25
REMARK   13  A    between atoms: _27  and  _29
REMARK   14  A    between atoms: _29  and  _30
REMARK   15  A    between atoms: _29  and  _32
REMARK   16  A    between atoms: _32  and  _33
REMARK   17  A    between atoms: _38  and  _40
REMARK   18  A    between atoms: _40  and  _41
REMARK   19  A    between atoms: _40  and  _43
REMARK   20  A    between atoms: _43  and  _44
REMARK   21  A    between atoms: _44  and  _45
REMARK   22  A    between atoms: _48  and  _50
REMARK   23  A    between atoms: _50  and  _51
REMARK   24  A    between atoms: _54  and  _56
REMARK   25  A    between atoms: _56  and  _57
REMARK   26  A    between atoms: _56  and  _59
REMARK   27  A    between atoms: _59  and  _60
REMARK   28  A    between atoms: _60  and  _61
REMARK   29  A    between atoms: _64  and  _66
REMARK   30  A    between atoms: _66  and  _67
REMARK   31  A    between atoms: _66  and  _69
REMARK   32  A    between atoms: _69  and  _70
REMARK   33  A    between atoms: _70  and  _71
REMARK   34  A    between atoms: _71  and  _72
REMARK   35  A    between atoms: _72  and  _73
REMARK   36  A    between atoms: _77  and  _79
REMARK   37  A    between atoms: _79  and  _80
REMARK   38  A    between atoms: _79  and  _82
REMARK   39  A    between atoms: _82  and  _83
REMARK   40  A    between atoms: _88  and  _89
REMARK   41  A    between atoms: _91  and  _93
REMARK   42  A    between atoms: _93  and  _94
REMARK   43  A    between atoms: _93  and  _96
REMARK   44  A    between atoms: _96  and  _97
REMARK   45  A    between atoms: _102  and  _104
REMARK   46  A    between atoms: _104  and  _105
REMARK   47  A    between atoms: _104  and  _107
REMARK   48  A    between atoms: _111  and  _112
REMARK   49  A    between atoms: _117  and  _119
REMARK   50  A    between atoms: _119  and  _120
REMARK   51  A    between atoms: _119  and  _122
REMARK   52  A    between atoms: _122  and  _123
REMARK   53  A    between atoms: _129  and  _131
REMARK   54  A    between atoms: _131  and  _132
REMARK   55  A    between atoms: _134  and  _136
REMARK   56  A    between atoms: _136  and  _137
REMARK   57  A    between atoms: _136  and  _139
REMARK   58  A    between atoms: _139  and  _140
REMARK   59  A    between atoms: _140  and  _141
REMARK   60  A    between atoms: _144  and  _146
REMARK   61  A    between atoms: _146  and  _147
REMARK   62  A    between atoms: _150  and  _152
REMARK   63  A    between atoms: _152  and  _153
REMARK   64  A    between atoms: _152  and  _155
REMARK   65  A    between atoms: _155  and  _156
REMARK   66  A    between atoms: _161  and  _163
REMARK   67  A    between atoms: _163  and  _164
REMARK   68  A    between atoms: _167  and  _169
REMARK   69  A    between atoms: _169  and  _170
REMARK   70  A    between atoms: _169  and  _172
REMARK   71  A    between atoms: _172  and  _173
REMARK   72  A    between atoms: _173  and  _174
REMARK   73  A    between atoms: _174  and  _175
REMARK   74  A    between atoms: _175  and  _176
REMARK   75  A    between atoms: _180  and  _182
REMARK   76  A    between atoms: _182  and  _183
REMARK   77  A    between atoms: _182  and  _185
REMARK   78  A    between atoms: _185  and  _186
REMARK   79  A    between atoms: _186  and  _187
REMARK   80  A    between atoms: _187  and  _188
REMARK   81  A    between atoms: _188  and  _189
REMARK   82  A    between atoms: _193  and  _195
REMARK   83  A    between atoms: _195  and  _196
REMARK   84  A    between atoms: _195  and  _198
REMARK   85  A    between atoms: _198  and  _199
REMARK   86  A    between atoms: _199  and  _200
REMARK   87  A    between atoms: _200  and  _201
REMARK   88  A    between atoms: _210  and  _212
REMARK   89  A    between atoms: _212  and  _213
REMARK   90  A    between atoms: _212  and  _215
REMARK   91  A    between atoms: _215  and  _216
REMARK   92  A    between atoms: _216  and  _217
REMARK   93  A    between atoms: _220  and  _222
REMARK   94  A    between atoms: _222  and  _223
REMARK   95  A    between atoms: _222  and  _225
REMARK   96  A    between atoms: _228  and  _230
REMARK   97  A    between atoms: _230  and  _231
REMARK   98  A    between atoms: _234  and  _236
REMARK   99  A    between atoms: _236  and  _237
REMARK  100  A    between atoms: _236  and  _239
REMARK  101  A    between atoms: _239  and  _240
REMARK  102  A    between atoms: _250  and  _252
REMARK  103  A    between atoms: _252  and  _253
REMARK  104  A    between atoms: _252  and  _255
REMARK  105  A    between atoms: _258  and  _260
REMARK  106  A    between atoms: _260  and  _261
REMARK  107  A    between atoms: _260  and  _263
REMARK  108  A    between atoms: _263  and  _264
REMARK  109  A    between atoms: _267  and  _269
REMARK  110  A    between atoms: _269  and  _270
REMARK  111  A    between atoms: _269  and  _272
REMARK  112  A    between atoms: _272  and  _273
REMARK  113  A    between atoms: _279  and  _281
REMARK  114  A    between atoms: _281  and  _282
REMARK  115  A    between atoms: _281  and  _284
REMARK  116  A    between atoms: _284  and  _285
REMARK  117  A    between atoms: _285  and  _286
REMARK  118  A    between atoms: _291  and  _293
REMARK  119  A    between atoms: _293  and  _294
REMARK  120  A    between atoms: _293  and  _296
REMARK  121  A    between atoms: _299  and  _301
REMARK  122  A    between atoms: _301  and  _302
REMARK  123  A    between atoms: _301  and  _304
REMARK  124  A    between atoms: _304  and  _305
REMARK  125  A    between atoms: _308  and  _310
REMARK  126  A    between atoms: _310  and  _311
REMARK  127  A    between atoms: _310  and  _313
REMARK  128  A    between atoms: _313  and  _314
REMARK  129  A    between atoms: _317  and  _319
REMARK  130  A    between atoms: _319  and  _320
REMARK  131  A    between atoms: _319  and  _322
REMARK  132  A    between atoms: _322  and  _323
REMARK  133  A    between atoms: _326  and  _328
REMARK  134  A    between atoms: _328  and  _329
REMARK  135  A    between atoms: _328  and  _331
REMARK  136  A    between atoms: _331  and  _332
REMARK  137  A    between atoms: _335  and  _337
REMARK  138  A    between atoms: _337  and  _338
REMARK  139  A    between atoms: _337  and  _340
REMARK  140  A    between atoms: _340  and  _341
REMARK  141  A    between atoms: _341  and  _342
REMARK  142  A    between atoms: _342  and  _343
REMARK  143  A    between atoms: _352  and  _354
REMARK  144  A    between atoms: _354  and  _355
REMARK  145  A    between atoms: _354  and  _357
REMARK  146  A    between atoms: _357  and  _358
REMARK  147  A    between atoms: _361  and  _363
REMARK  148  A    between atoms: _363  and  _364
REMARK  149  A    between atoms: _363  and  _366
REMARK  150  A    between atoms: _366  and  _367
REMARK  151  A    between atoms: _371  and  _372
REMARK  152  A    between atoms: _377  and  _379
REMARK  153  A    between atoms: _379  and  _380
REMARK  154  A    between atoms: _379  and  _382
REMARK  155  A    between atoms: _382  and  _383
REMARK  156  A    between atoms: _388  and  _389
REMARK  157  A    between atoms: _391  and  _393
REMARK  158  A    between atoms: _393  and  _394
REMARK  159  A    between atoms: _393  and  _396
REMARK  160  A    between atoms: _396  and  _397
REMARK  161  A    between atoms: _407  and  _409
REMARK  162  A    between atoms: _409  and  _410
REMARK  163  A    between atoms: _409  and  _412
REMARK  164  A    between atoms: _412  and  _413
REMARK  165  A    between atoms: _419  and  _421
REMARK  166  A    between atoms: _421  and  _422
REMARK  167  A    between atoms: _421  and  _424
REMARK  168  A    between atoms: _424  and  _425
REMARK  169  A    between atoms: _428  and  _430
REMARK  170  A    between atoms: _430  and  _431
REMARK  171  A    between atoms: _430  and  _433
REMARK  172  A    between atoms: _433  and  _434
REMARK  173  A    between atoms: _444  and  _446
REMARK  174  A    between atoms: _446  and  _447
REMARK  175  A    between atoms: _446  and  _449
REMARK  176  A    between atoms: _449  and  _450
REMARK  177  A    between atoms: _450  and  _451
REMARK  178  A    between atoms: _453  and  _455
REMARK  179  A    between atoms: _455  and  _456
REMARK  180  A    between atoms: _455  and  _458
REMARK  181  A    between atoms: _458  and  _459
REMARK  182  A    between atoms: _464  and  _466
REMARK  183  A    between atoms: _466  and  _467
REMARK  184  A    between atoms: _470  and  _471
REMARK  185  A    between atoms: _476  and  _478
REMARK  186  A    between atoms: _478  and  _479
REMARK  187  A    between atoms: _478  and  _481
REMARK  188  A    between atoms: _481  and  _482
REMARK  189  A    between atoms: _492  and  _494
REMARK  190  A    between atoms: _494  and  _495
REMARK  191  A    between atoms: _499  and  _500
REMARK  192  A    between atoms: _505  and  _507
REMARK  193  A    between atoms: _507  and  _508
REMARK  194  A    between atoms: _507  and  _510
REMARK  195  A    between atoms: _510  and  _511
REMARK  196  A    between atoms: _511  and  _512
REMARK  197  A    between atoms: _517  and  _519
REMARK  198  A    between atoms: _519  and  _520
REMARK  199  A    between atoms: _522  and  _524
REMARK  200  A    between atoms: _524  and  _525
REMARK  201  A    between atoms: _527  and  _529
REMARK  202  A    between atoms: _529  and  _530
REMARK  203  A    between atoms: _529  and  _532
REMARK  204  A    between atoms: _532  and  _533
REMARK  205  A    between atoms: _543  and  _545
REMARK  206  A    between atoms: _545  and  _546
REMARK  207  A    between atoms: _545  and  _548
REMARK  208  A    between atoms: _548  and  _549
REMARK  209  A    between atoms: _552  and  _554
REMARK  210  A    between atoms: _554  and  _555
REMARK  211  A    between atoms: _554  and  _557
REMARK  212  A    between atoms: _557  and  _558
REMARK  213  A    between atoms: _561  and  _563
REMARK  214  A    between atoms: _563  and  _564
REMARK  215  A    between atoms: _563  and  _566
REMARK  216  A    between atoms: _566  and  _567
REMARK  217  A    between atoms: _567  and  _568
REMARK  218  A    between atoms: _568  and  _569
REMARK  219  A    between atoms: _578  and  _580
REMARK  220  A    between atoms: _580  and  _581
REMARK  221  A    between atoms: _580  and  _583
REMARK  222  A    between atoms: _583  and  _584
REMARK  223  A    between atoms: _594  and  _596
REMARK  224  A    between atoms: _596  and  _597
REMARK  225  A    between atoms: _600  and  _602
REMARK  226  A    between atoms: _602  and  _603
REMARK  227  A    between atoms: _602  and  _605
REMARK  228  A    between atoms: _605  and  _606
REMARK  229  A    between atoms: _606  and  _607
REMARK  230  A    between atoms: _610  and  _612
REMARK  231  A    between atoms: _612  and  _613
REMARK  232  A    between atoms: _615  and  _617
REMARK  233  A    between atoms: _617  and  _618
REMARK  234  A    between atoms: _617  and  _620
REMARK  235  A    between atoms: _620  and  _621
REMARK  236  A    between atoms: _626  and  _628
REMARK  237  A    between atoms: _628  and  _629
REMARK  238  A    between atoms: _632  and  _634
REMARK  239  A    between atoms: _634  and  _635
REMARK  240  A    between atoms: _634  and  _637
REMARK  241  A    between atoms: _637  and  _638
REMARK  242  A    between atoms: _641  and  _643
REMARK  243  A    between atoms: _643  and  _644
REMARK  244  A    between atoms: _643  and  _646
REMARK  245  A    between atoms: _646  and  _647
REMARK  246  A    between atoms: _653  and  _655
REMARK  247  A    between atoms: _655  and  _656
REMARK  248  A    between atoms: _655  and  _658
REMARK  249  A    between atoms: _658  and  _659
REMARK  250  A    between atoms: _659  and  _660
REMARK  251  A    between atoms: _663  and  _665
REMARK  252  A    between atoms: _665  and  _666
REMARK  253  A    between atoms: _665  and  _668
REMARK  254  A    between atoms: _668  and  _669
REMARK  255  A    between atoms: _669  and  _670
REMARK  256  A    between atoms: _670  and  _671
REMARK                            x       y       z     vdW  Elec       q    Type
REMARK                         _______ _______ _______ _____ _____    ______ ____
ROOT
ATOM      1  O   HOH     1      -1.789 -11.722  28.307  0.00  0.00    +0.000 OA
ENDROOT
TORSDOF 0
REMARK  Name = ../refined-set-2016/3k00/3k00_pocket.pdb
REMARK  256 active torsions:
REMARK  status: ('A' for Active; 'I' for Inactive)
REMARK    1  A    between atoms: _1  and  _3
REMARK    2  A    between atoms: _3  and  _4
REMARK    3  A    between atoms: _3  and  _6
REMARK    4  A    between atoms: _6  and  _7
REMARK    5  A    between atoms: _10  and  _12
REMARK    6  A    between atoms: _12  and  _13
REMARK    7  A    between atoms: _12  and  _15
REMARK    8  A    between atoms: _15  and  _16
REMARK    9  A    between atoms: _19  and  _21
REMARK   10  A    between atoms: _21  and  _22
REMARK   11  A    between atoms: _21  and  _24
REMARK   12  A    between atoms: _24  and  _25
REMARK   13  A    between atoms: _27  and  _29
REMARK   14  A    between atoms: _29  and  _30
REMARK   15  A    between atoms: _29  and  _32
REMARK   16  A    between atoms: _32  and  _33
REMARK   17  A    between atoms: _38  and  _40
REMARK   18  A    between atoms: _40  and  _41
REMARK   19  A    between atoms: _40  and  _43
REMARK   20  A    between atoms: _43  and  _44
REMARK   21  A    between atoms: _44  and  _45
REMARK   22  A    between atoms: _48  and  _50
REMARK   23  A    between atoms: _50  and  _51
REMARK   24  A    between atoms: _54  and  _56
REMARK   25  A    between atoms: _56  and  _57
REMARK   26  A    between atoms: _56  and  _59
REMARK   27  A    between atoms: _59  and  _60
REMARK   28  A    between atoms: _60  and  _61
REMARK   29  A    between atoms: _64  and  _66
REMARK   30  A    between atoms: _66  and  _67
REMARK   31  A    between atoms: _66  and  _69
REMARK   32  A    between atoms: _69  and  _70
REMARK   33  A    between atoms: _70  and  _71
REMARK   34  A    between atoms: _71  and  _72
REMARK   35  A    between atoms: _72  and  _73
REMARK   36  A    between atoms: _77  and  _79
REMARK   37  A    between atoms: _79  and  _80
REMARK   38  A    between atoms: _79  and  _82
REMARK   39  A    between atoms: _82  and  _83
REMARK   40  A    between atoms: _88  and  _89
REMARK   41  A    between atoms: _91  and  _93
REMARK   42  A    between atoms: _93  and  _94
REMARK   43  A    between atoms: _93  and  _96
REMARK   44  A    between atoms: _96  and  _97
REMARK   45  A    between atoms: _102  and  _104
REMARK   46  A    between atoms: _104  and  _105
REMARK   47  A    between atoms: _104  and  _107
REMARK   48  A    between atoms: _111  and  _112
REMARK   49  A    between atoms: _117  and  _119
REMARK   50  A    between atoms: _119  and  _120
REMARK   51  A    between atoms: _119  and  _122
REMARK   52  A    between atoms: _122  and  _123
REMARK   53  A    between atoms: _129  and  _131
REMARK   54  A    between atoms: _131  and  _132
REMARK   55  A    between atoms: _134  and  _136
REMARK   56  A    between atoms: _136  and  _137
REMARK   57  A    between atoms: _136  and  _139
REMARK   58  A    between atoms: _139  and  _140
REMARK   59  A    between atoms: _140  and  _141
REMARK   60  A    between atoms: _144  and  _146
REMARK   61  A    between atoms: _146  and  _147
REMARK   62  A    between atoms: _150  and  _152
REMARK   63  A    between atoms: _152  and  _153
REMARK   64  A    between atoms: _152  and  _155
REMARK   65  A    between atoms: _155  and  _156
REMARK   66  A    between atoms: _161  and  _163
REMARK   67  A    between atoms: _163  and  _164
REMARK   68  A    between atoms: _167  and  _169
REMARK   69  A    between atoms: _169  and  _170
REMARK   70  A    between atoms: _169  and  _172
REMARK   71  A    between atoms: _172  and  _173
REMARK   72  A    between atoms: _173  and  _174
REMARK   73  A    between atoms: _174  and  _175
REMARK   74  A    between atoms: _175  and  _176
REMARK   75  A    between atoms: _180  and  _182
REMARK   76  A    between atoms: _182  and  _183
REMARK   77  A    between atoms: _182  and  _185
REMARK   78  A    between atoms: _185  and  _186
REMARK   79  A    between atoms: _186  and  _187
REMARK   80  A    between atoms: _187  and  _188
REMARK   81  A    between atoms: _188  and  _189
REMARK   82  A    between atoms: _193  and  _195
REMARK   83  A    between atoms: _195  and  _196
REMARK   84  A    between atoms: _195  and  _198
REMARK   85  A    between atoms: _198  and  _199
REMARK   86  A    between atoms: _199  and  _200
REMARK   87  A    between atoms: _200  and  _201
REMARK   88  A    between atoms: _210  and  _212
REMARK   89  A    between atoms: _212  and  _213
REMARK   90  A    between atoms: _212  and  _215
REMARK   91  A    between atoms: _215  and  _216
REMARK   92  A    between atoms: _216  and  _217
REMARK   93  A    between atoms: _220  and  _222
REMARK   94  A    between atoms: _222  and  _223
REMARK   95  A    between atoms: _222  and  _225
REMARK   96  A    between atoms: _228  and  _230
REMARK   97  A    between atoms: _230  and  _231
REMARK   98  A    between atoms: _234  and  _236
REMARK   99  A    between atoms: _236  and  _237
REMARK  100  A    between atoms: _236  and  _239
REMARK  101  A    between atoms: _239  and  _240
REMARK  102  A    between atoms: _250  and  _252
REMARK  103  A    between atoms: _252  and  _253
REMARK  104  A    between atoms: _252  and  _255
REMARK  105  A    between atoms: _258  and  _260
REMARK  106  A    between atoms: _260  and  _261
REMARK  107  A    between atoms: _260  and  _263
REMARK  108  A    between atoms: _263  and  _264
REMARK  109  A    between atoms: _267  and  _269
REMARK  110  A    between atoms: _269  and  _270
REMARK  111  A    between atoms: _269  and  _272
REMARK  112  A    between atoms: _272  and  _273
REMARK  113  A    between atoms: _279  and  _281
REMARK  114  A    between atoms: _281  and  _282
REMARK  115  A    between atoms: _281  and  _284
REMARK  116  A    between atoms: _284  and  _285
REMARK  117  A    between atoms: _285  and  _286
REMARK  118  A    between atoms: _291  and  _293
REMARK  119  A    between atoms: _293  and  _294
REMARK  120  A    between atoms: _293  and  _296
REMARK  121  A    between atoms: _299  and  _301
REMARK  122  A    between atoms: _301  and  _302
REMARK  123  A    between atoms: _301  and  _304
REMARK  124  A    between atoms: _304  and  _305
REMARK  125  A    between atoms: _308  and  _310
REMARK  126  A    between atoms: _310  and  _311
REMARK  127  A    between atoms: _310  and  _313
REMARK  128  A    between atoms: _313  and  _314
REMARK  129  A    between atoms: _317  and  _319
REMARK  130  A    between atoms: _319  and  _320
REMARK  131  A    between atoms: _319  and  _322
REMARK  132  A    between atoms: _322  and  _323
REMARK  133  A    between atoms: _326  and  _328
REMARK  134  A    between atoms: _328  and  _329
REMARK  135  A    between atoms: _328  and  _331
REMARK  136  A    between atoms: _331  and  _332
REMARK  137  A    between atoms: _335  and  _337
REMARK  138  A    between atoms: _337  and  _338
REMARK  139  A    between atoms: _337  and  _340
REMARK  140  A    between atoms: _340  and  _341
REMARK  141  A    between atoms: _341  and  _342
REMARK  142  A    between atoms: _342  and  _343
REMARK  143  A    between atoms: _352  and  _354
REMARK  144  A    between atoms: _354  and  _355
REMARK  145  A    between atoms: _354  and  _357
REMARK  146  A    between atoms: _357  and  _358
REMARK  147  A    between atoms: _361  and  _363
REMARK  148  A    between atoms: _363  and  _364
REMARK  149  A    between atoms: _363  and  _366
REMARK  150  A    between atoms: _366  and  _367
REMARK  151  A    between atoms: _371  and  _372
REMARK  152  A    between atoms: _377  and  _379
REMARK  153  A    between atoms: _379  and  _380
REMARK  154  A    between atoms: _379  and  _382
REMARK  155  A    between atoms: _382  and  _383
REMARK  156  A    between atoms: _388  and  _389
REMARK  157  A    between atoms: _391  and  _393
REMARK  158  A    between atoms: _393  and  _394
REMARK  159  A    between atoms: _393  and  _396
REMARK  160  A    between atoms: _396  and  _397
REMARK  161  A    between atoms: _407  and  _409
REMARK  162  A    between atoms: _409  and  _410
REMARK  163  A    between atoms: _409  and  _412
REMARK  164  A    between atoms: _412  and  _413
REMARK  165  A    between atoms: _419  and  _421
REMARK  166  A    between atoms: _421  and  _422
REMARK  167  A    between atoms: _421  and  _424
REMARK  168  A    between atoms: _424  and  _425
REMARK  169  A    between atoms: _428  and  _430
REMARK  170  A    between atoms: _430  and  _431
REMARK  171  A    between atoms: _430  and  _433
REMARK  172  A    between atoms: _433  and  _434
REMARK  173  A    between atoms: _444  and  _446
REMARK  174  A    between atoms: _446  and  _447
REMARK  175  A    between atoms: _446  and  _449
REMARK  176  A    between atoms: _449  and  _450
REMARK  177  A    between atoms: _450  and  _451
REMARK  178  A    between atoms: _453  and  _455
REMARK  179  A    between atoms: _455  and  _456
REMARK  180  A    between atoms: _455  and  _458
REMARK  181  A    between atoms: _458  and  _459
REMARK  182  A    between atoms: _464  and  _466
REMARK  183  A    between atoms: _466  and  _467
REMARK  184  A    between atoms: _470  and  _471
REMARK  185  A    between atoms: _476  and  _478
REMARK  186  A    between atoms: _478  and  _479
REMARK  187  A    between atoms: _478  and  _481
REMARK  188  A    between atoms: _481  and  _482
REMARK  189  A    between atoms: _492  and  _494
REMARK  190  A    between atoms: _494  and  _495
REMARK  191  A    between atoms: _499  and  _500
REMARK  192  A    between atoms: _505  and  _507
REMARK  193  A    between atoms: _507  and  _508
REMARK  194  A    between atoms: _507  and  _510
REMARK  195  A    between atoms: _510  and  _511
REMARK  196  A    between atoms: _511  and  _512
REMARK  197  A    between atoms: _517  and  _519
REMARK  198  A    between atoms: _519  and  _520
REMARK  199  A    between atoms: _522  and  _524
REMARK  200  A    between atoms: _524  and  _525
REMARK  201  A    between atoms: _527  and  _529
REMARK  202  A    between atoms: _529  and  _530
REMARK  203  A    between atoms: _529  and  _532
REMARK  204  A    between atoms: _532  and  _533
REMARK  205  A    between atoms: _543  and  _545
REMARK  206  A    between atoms: _545  and  _546
REMARK  207  A    between atoms: _545  and  _548
REMARK  208  A    between atoms: _548  and  _549
REMARK  209  A    between atoms: _552  and  _554
REMARK  210  A    between atoms: _554  and  _555
REMARK  211  A    between atoms: _554  and  _557
REMARK  212  A    between atoms: _557  and  _558
REMARK  213  A    between atoms: _561  and  _563
REMARK  214  A    between atoms: _563  and  _564
REMARK  215  A    between atoms: _563  and  _566
REMARK  216  A    between atoms: _566  and  _567
REMARK  217  A    between atoms: _567  and  _568
REMARK  218  A    between atoms: _568  and  _569
REMARK  219  A    between atoms: _578  and  _580
REMARK  220  A    between atoms: _580  and  _581
REMARK  221  A    between atoms: _580  and  _583
REMARK  222  A    between atoms: _583  and  _584
REMARK  223  A    between atoms: _594  and  _596
REMARK  224  A    between atoms: _596  and  _597
REMARK  225  A    between atoms: _600  and  _602
REMARK  226  A    between atoms: _602  and  _603
REMARK  227  A    between atoms: _602  and  _605
REMARK  228  A    between atoms: _605  and  _606
REMARK  229  A    between atoms: _606  and  _607
REMARK  230  A    between atoms: _610  and  _612
REMARK  231  A    between atoms: _612  and  _613
REMARK  232  A    between atoms: _615  and  _617
REMARK  233  A    between atoms: _617  and  _618
REMARK  234  A    between atoms: _617  and  _620
REMARK  235  A    between atoms: _620  and  _621
REMARK  236  A    between atoms: _626  and  _628
REMARK  237  A    between atoms: _628  and  _629
REMARK  238  A    between atoms: _632  and  _634
REMARK  239  A    between atoms: _634  and  _635
REMARK  240  A    between atoms: _634  and  _637
REMARK  241  A    between atoms: _637  and  _638
REMARK  242  A    between atoms: _641  and  _643
REMARK  243  A    between atoms: _643  and  _644
REMARK  244  A    between atoms: _643  and  _646
REMARK  245  A    between atoms: _646  and  _647
REMARK  246  A    between atoms: _653  and  _655
REMARK  247  A    between atoms: _655  and  _656
REMARK  248  A    between atoms: _655  and  _658
REMARK  249  A    between atoms: _658  and  _659
REMARK  250  A    between atoms: _659  and  _660
REMARK  251  A    between atoms: _663  and  _665
REMARK  252  A    between atoms: _665  and  _666
REMARK  253  A    between atoms: _665  and  _668
REMARK  254  A    between atoms: _668  and  _669
REMARK  255  A    between atoms: _669  and  _670
REMARK  256  A    between atoms: _670  and  _671
REMARK                            x       y       z     vdW  Elec       q    Type
REMARK                         _______ _______ _______ _____ _____    ______ ____
ROOT
ATOM      1  O   HOH     1      -6.459  -4.711  12.128  0.00  0.00    +0.000 OA
ENDROOT
TORSDOF 0
REMARK  Name = ../refined-set-2016/3k00/3k00_pocket.pdb
REMARK  256 active torsions:
REMARK  status: ('A' for Active; 'I' for Inactive)
REMARK    1  A    between atoms: _1  and  _3
REMARK    2  A    between atoms: _3  and  _4
REMARK    3  A    between atoms: _3  and  _6
REMARK    4  A    between atoms: _6  and  _7
REMARK    5  A    between atoms: _10  and  _12
REMARK    6  A    between atoms: _12  and  _13
REMARK    7  A    between atoms: _12  and  _15
REMARK    8  A    between atoms: _15  and  _16
REMARK    9  A    between atoms: _19  and  _21
REMARK   10  A    between atoms: _21  and  _22
REMARK   11  A    between atoms: _21  and  _24
REMARK   12  A    between atoms: _24  and  _25
REMARK   13  A    between atoms: _27  and  _29
REMARK   14  A    between atoms: _29  and  _30
REMARK   15  A    between atoms: _29  and  _32
REMARK   16  A    between atoms: _32  and  _33
REMARK   17  A    between atoms: _38  and  _40
REMARK   18  A    between atoms: _40  and  _41
REMARK   19  A    between atoms: _40  and  _43
REMARK   20  A    between atoms: _43  and  _44
REMARK   21  A    between atoms: _44  and  _45
REMARK   22  A    between atoms: _48  and  _50
REMARK   23  A    between atoms: _50  and  _51
REMARK   24  A    between atoms: _54  and  _56
REMARK   25  A    between atoms: _56  and  _57
REMARK   26  A    between atoms: _56  and  _59
REMARK   27  A    between atoms: _59  and  _60
REMARK   28  A    between atoms: _60  and  _61
REMARK   29  A    between atoms: _64  and  _66
REMARK   30  A    between atoms: _66  and  _67
REMARK   31  A    between atoms: _66  and  _69
REMARK   32  A    between atoms: _69  and  _70
REMARK   33  A    between atoms: _70  and  _71
REMARK   34  A    between atoms: _71  and  _72
REMARK   35  A    between atoms: _72  and  _73
REMARK   36  A    between atoms: _77  and  _79
REMARK   37  A    between atoms: _79  and  _80
REMARK   38  A    between atoms: _79  and  _82
REMARK   39  A    between atoms: _82  and  _83
REMARK   40  A    between atoms: _88  and  _89
REMARK   41  A    between atoms: _91  and  _93
REMARK   42  A    between atoms: _93  and  _94
REMARK   43  A    between atoms: _93  and  _96
REMARK   44  A    between atoms: _96  and  _97
REMARK   45  A    between atoms: _102  and  _104
REMARK   46  A    between atoms: _104  and  _105
REMARK   47  A    between atoms: _104  and  _107
REMARK   48  A    between atoms: _111  and  _112
REMARK   49  A    between atoms: _117  and  _119
REMARK   50  A    between atoms: _119  and  _120
REMARK   51  A    between atoms: _119  and  _122
REMARK   52  A    between atoms: _122  and  _123
REMARK   53  A    between atoms: _129  and  _131
REMARK   54  A    between atoms: _131  and  _132
REMARK   55  A    between atoms: _134  and  _136
REMARK   56  A    between atoms: _136  and  _137
REMARK   57  A    between atoms: _136  and  _139
REMARK   58  A    between atoms: _139  and  _140
REMARK   59  A    between atoms: _140  and  _141
REMARK   60  A    between atoms: _144  and  _146
REMARK   61  A    between atoms: _146  and  _147
REMARK   62  A    between atoms: _150  and  _152
REMARK   63  A    between atoms: _152  and  _153
REMARK   64  A    between atoms: _152  and  _155
REMARK   65  A    between atoms: _155  and  _156
REMARK   66  A    between atoms: _161  and  _163
REMARK   67  A    between atoms: _163  and  _164
REMARK   68  A    between atoms: _167  and  _169
REMARK   69  A    between atoms: _169  and  _170
REMARK   70  A    between atoms: _169  and  _172
REMARK   71  A    between atoms: _172  and  _173
REMARK   72  A    between atoms: _173  and  _174
REMARK   73  A    between atoms: _174  and  _175
REMARK   74  A    between atoms: _175  and  _176
REMARK   75  A    between atoms: _180  and  _182
REMARK   76  A    between atoms: _182  and  _183
REMARK   77  A    between atoms: _182  and  _185
REMARK   78  A    between atoms: _185  and  _186
REMARK   79  A    between atoms: _186  and  _187
REMARK   80  A    between atoms: _187  and  _188
REMARK   81  A    between atoms: _188  and  _189
REMARK   82  A    between atoms: _193  and  _195
REMARK   83  A    between atoms: _195  and  _196
REMARK   84  A    between atoms: _195  and  _198
REMARK   85  A    between atoms: _198  and  _199
REMARK   86  A    between atoms: _199  and  _200
REMARK   87  A    between atoms: _200  and  _201
REMARK   88  A    between atoms: _210  and  _212
REMARK   89  A    between atoms: _212  and  _213
REMARK   90  A    between atoms: _212  and  _215
REMARK   91  A    between atoms: _215  and  _216
REMARK   92  A    between atoms: _216  and  _217
REMARK   93  A    between atoms: _220  and  _222
REMARK   94  A    between atoms: _222  and  _223
REMARK   95  A    between atoms: _222  and  _225
REMARK   96  A    between atoms: _228  and  _230
REMARK   97  A    between atoms: _230  and  _231
REMARK   98  A    between atoms: _234  and  _236
REMARK   99  A    between atoms: _236  and  _237
REMARK  100  A    between atoms: _236  and  _239
REMARK  101  A    between atoms: _239  and  _240
REMARK  102  A    between atoms: _250  and  _252
REMARK  103  A    between atoms: _252  and  _253
REMARK  104  A    between atoms: _252  and  _255
REMARK  105  A    between atoms: _258  and  _260
REMARK  106  A    between atoms: _260  and  _261
REMARK  107  A    between atoms: _260  and  _263
REMARK  108  A    between atoms: _263  and  _264
REMARK  109  A    between atoms: _267  and  _269
REMARK  110  A    between atoms: _269  and  _270
REMARK  111  A    between atoms: _269  and  _272
REMARK  112  A    between atoms: _272  and  _273
REMARK  113  A    between atoms: _279  and  _281
REMARK  114  A    between atoms: _281  and  _282
REMARK  115  A    between atoms: _281  and  _284
REMARK  116  A    between atoms: _284  and  _285
REMARK  117  A    between atoms: _285  and  _286
REMARK  118  A    between atoms: _291  and  _293
REMARK  119  A    between atoms: _293  and  _294
REMARK  120  A    between atoms: _293  and  _296
REMARK  121  A    between atoms: _299  and  _301
REMARK  122  A    between atoms: _301  and  _302
REMARK  123  A    between atoms: _301  and  _304
REMARK  124  A    between atoms: _304  and  _305
REMARK  125  A    between atoms: _308  and  _310
REMARK  126  A    between atoms: _310  and  _311
REMARK  127  A    between atoms: _310  and  _313
REMARK  128  A    between atoms: _313  and  _314
REMARK  129  A    between atoms: _317  and  _319
REMARK  130  A    between atoms: _319  and  _320
REMARK  131  A    between atoms: _319  and  _322
REMARK  132  A    between atoms: _322  and  _323
REMARK  133  A    between atoms: _326  and  _328
REMARK  134  A    between atoms: _328  and  _329
REMARK  135  A    between atoms: _328  and  _331
REMARK  136  A    between atoms: _331  and  _332
REMARK  137  A    between atoms: _335  and  _337
REMARK  138  A    between atoms: _337  and  _338
REMARK  139  A    between atoms: _337  and  _340
REMARK  140  A    between atoms: _340  and  _341
REMARK  141  A    between atoms: _341  and  _342
REMARK  142  A    between atoms: _342  and  _343
REMARK  143  A    between atoms: _352  and  _354
REMARK  144  A    between atoms: _354  and  _355
REMARK  145  A    between atoms: _354  and  _357
REMARK  146  A    between atoms: _357  and  _358
REMARK  147  A    between atoms: _361  and  _363
REMARK  148  A    between atoms: _363  and  _364
REMARK  149  A    between atoms: _363  and  _366
REMARK  150  A    between atoms: _366  and  _367
REMARK  151  A    between atoms: _371  and  _372
REMARK  152  A    between atoms: _377  and  _379
REMARK  153  A    between atoms: _379  and  _380
REMARK  154  A    between atoms: _379  and  _382
REMARK  155  A    between atoms: _382  and  _383
REMARK  156  A    between atoms: _388  and  _389
REMARK  157  A    between atoms: _391  and  _393
REMARK  158  A    between atoms: _393  and  _394
REMARK  159  A    between atoms: _393  and  _396
REMARK  160  A    between atoms: _396  and  _397
REMARK  161  A    between atoms: _407  and  _409
REMARK  162  A    between atoms: _409  and  _410
REMARK  163  A    between atoms: _409  and  _412
REMARK  164  A    between atoms: _412  and  _413
REMARK  165  A    between atoms: _419  and  _421
REMARK  166  A    between atoms: _421  and  _422
REMARK  167  A    between atoms: _421  and  _424
REMARK  168  A    between atoms: _424  and  _425
REMARK  169  A    between atoms: _428  and  _430
REMARK  170  A    between atoms: _430  and  _431
REMARK  171  A    between atoms: _430  and  _433
REMARK  172  A    between atoms: _433  and  _434
REMARK  173  A    between atoms: _444  and  _446
REMARK  174  A    between atoms: _446  and  _447
REMARK  175  A    between atoms: _446  and  _449
REMARK  176  A    between atoms: _449  and  _450
REMARK  177  A    between atoms: _450  and  _451
REMARK  178  A    between atoms: _453  and  _455
REMARK  179  A    between atoms: _455  and  _456
REMARK  180  A    between atoms: _455  and  _458
REMARK  181  A    between atoms: _458  and  _459
REMARK  182  A    between atoms: _464  and  _466
REMARK  183  A    between atoms: _466  and  _467
REMARK  184  A    between atoms: _470  and  _471
REMARK  185  A    between atoms: _476  and  _478
REMARK  186  A    between atoms: _478  and  _479
REMARK  187  A    between atoms: _478  and  _481
REMARK  188  A    between atoms: _481  and  _482
REMARK  189  A    between atoms: _492  and  _494
REMARK  190  A    between atoms: _494  and  _495
REMARK  191  A    between atoms: _499  and  _500
REMARK  192  A    between atoms: _505  and  _507
REMARK  193  A    between atoms: _507  and  _508
REMARK  194  A    between atoms: _507  and  _510
REMARK  195  A    between atoms: _510  and  _511
REMARK  196  A    between atoms: _511  and  _512
REMARK  197  A    between atoms: _517  and  _519
REMARK  198  A    between atoms: _519  and  _520
REMARK  199  A    between atoms: _522  and  _524
REMARK  200  A    between atoms: _524  and  _525
REMARK  201  A    between atoms: _527  and  _529
REMARK  202  A    between atoms: _529  and  _530
REMARK  203  A    between atoms: _529  and  _532
REMARK  204  A    between atoms: _532  and  _533
REMARK  205  A    between atoms: _543  and  _545
REMARK  206  A    between atoms: _545  and  _546
REMARK  207  A    between atoms: _545  and  _548
REMARK  208  A    between atoms: _548  and  _549
REMARK  209  A    between atoms: _552  and  _554
REMARK  210  A    between atoms: _554  and  _555
REMARK  211  A    between atoms: _554  and  _557
REMARK  212  A    between atoms: _557  and  _558
REMARK  213  A    between atoms: _561  and  _563
REMARK  214  A    between atoms: _563  and  _564
REMARK  215  A    between atoms: _563  and  _566
REMARK  216  A    between atoms: _566  and  _567
REMARK  217  A    between atoms: _567  and  _568
REMARK  218  A    between atoms: _568  and  _569
REMARK  219  A    between atoms: _578  and  _580
REMARK  220  A    between atoms: _580  and  _581
REMARK  221  A    between atoms: _580  and  _583
REMARK  222  A    between atoms: _583  and  _584
REMARK  223  A    between atoms: _594  and  _596
REMARK  224  A    between atoms: _596  and  _597
REMARK  225  A    between atoms: _600  and  _602
REMARK  226  A    between atoms: _602  and  _603
REMARK  227  A    between atoms: _602  and  _605
REMARK  228  A    between atoms: _605  and  _606
REMARK  229  A    between atoms: _606  and  _607
REMARK  230  A    between atoms: _610  and  _612
REMARK  231  A    between atoms: _612  and  _613
REMARK  232  A    between atoms: _615  and  _617
REMARK  233  A    between atoms: _617  and  _618
REMARK  234  A    between atoms: _617  and  _620
REMARK  235  A    between atoms: _620  and  _621
REMARK  236  A    between atoms: _626  and  _628
REMARK  237  A    between atoms: _628  and  _629
REMARK  238  A    between atoms: _632  and  _634
REMARK  239  A    between atoms: _634  and  _635
REMARK  240  A    between atoms: _634  and  _637
REMARK  241  A    between atoms: _637  and  _638
REMARK  242  A    between atoms: _641  and  _643
REMARK  243  A    between atoms: _643  and  _644
REMARK  244  A    between atoms: _643  and  _646
REMARK  245  A    between atoms: _646  and  _647
REMARK  246  A    between atoms: _653  and  _655
REMARK  247  A    between atoms: _655  and  _656
REMARK  248  A    between atoms: _655  and  _658
REMARK  249  A    between atoms: _658  and  _659
REMARK  250  A    between atoms: _659  and  _660
REMARK  251  A    between atoms: _663  and  _665
REMARK  252  A    between atoms: _665  and  _666
REMARK  253  A    between atoms: _665  and  _668
REMARK  254  A    between atoms: _668  and  _669
REMARK  255  A    between atoms: _669  and  _670
REMARK  256  A    between atoms: _670  and  _671
REMARK                            x       y       z     vdW  Elec       q    Type
REMARK                         _______ _______ _______ _____ _____    ______ ____
ROOT
ATOM      1  O   HOH     1     -10.177  -4.558  17.633  0.00  0.00    +0.000 OA
ENDROOT
TORSDOF 0
REMARK  Name = ../refined-set-2016/3k00/3k00_pocket.pdb
REMARK  256 active torsions:
REMARK  status: ('A' for Active; 'I' for Inactive)
REMARK    1  A    between atoms: _1  and  _3
REMARK    2  A    between atoms: _3  and  _4
REMARK    3  A    between atoms: _3  and  _6
REMARK    4  A    between atoms: _6  and  _7
REMARK    5  A    between atoms: _10  and  _12
REMARK    6  A    between atoms: _12  and  _13
REMARK    7  A    between atoms: _12  and  _15
REMARK    8  A    between atoms: _15  and  _16
REMARK    9  A    between atoms: _19  and  _21
REMARK   10  A    between atoms: _21  and  _22
REMARK   11  A    between atoms: _21  and  _24
REMARK   12  A    between atoms: _24  and  _25
REMARK   13  A    between atoms: _27  and  _29
REMARK   14  A    between atoms: _29  and  _30
REMARK   15  A    between atoms: _29  and  _32
REMARK   16  A    between atoms: _32  and  _33
REMARK   17  A    between atoms: _38  and  _40
REMARK   18  A    between atoms: _40  and  _41
REMARK   19  A    between atoms: _40  and  _43
REMARK   20  A    between atoms: _43  and  _44
REMARK   21  A    between atoms: _44  and  _45
REMARK   22  A    between atoms: _48  and  _50
REMARK   23  A    between atoms: _50  and  _51
REMARK   24  A    between atoms: _54  and  _56
REMARK   25  A    between atoms: _56  and  _57
REMARK   26  A    between atoms: _56  and  _59
REMARK   27  A    between atoms: _59  and  _60
REMARK   28  A    between atoms: _60  and  _61
REMARK   29  A    between atoms: _64  and  _66
REMARK   30  A    between atoms: _66  and  _67
REMARK   31  A    between atoms: _66  and  _69
REMARK   32  A    between atoms: _69  and  _70
REMARK   33  A    between atoms: _70  and  _71
REMARK   34  A    between atoms: _71  and  _72
REMARK   35  A    between atoms: _72  and  _73
REMARK   36  A    between atoms: _77  and  _79
REMARK   37  A    between atoms: _79  and  _80
REMARK   38  A    between atoms: _79  and  _82
REMARK   39  A    between atoms: _82  and  _83
REMARK   40  A    between atoms: _88  and  _89
REMARK   41  A    between atoms: _91  and  _93
REMARK   42  A    between atoms: _93  and  _94
REMARK   43  A    between atoms: _93  and  _96
REMARK   44  A    between atoms: _96  and  _97
REMARK   45  A    between atoms: _102  and  _104
REMARK   46  A    between atoms: _104  and  _105
REMARK   47  A    between atoms: _104  and  _107
REMARK   48  A    between atoms: _111  and  _112
REMARK   49  A    between atoms: _117  and  _119
REMARK   50  A    between atoms: _119  and  _120
REMARK   51  A    between atoms: _119  and  _122
REMARK   52  A    between atoms: _122  and  _123
REMARK   53  A    between atoms: _129  and  _131
REMARK   54  A    between atoms: _131  and  _132
REMARK   55  A    between atoms: _134  and  _136
REMARK   56  A    between atoms: _136  and  _137
REMARK   57  A    between atoms: _136  and  _139
REMARK   58  A    between atoms: _139  and  _140
REMARK   59  A    between atoms: _140  and  _141
REMARK   60  A    between atoms: _144  and  _146
REMARK   61  A    between atoms: _146  and  _147
REMARK   62  A    between atoms: _150  and  _152
REMARK   63  A    between atoms: _152  and  _153
REMARK   64  A    between atoms: _152  and  _155
REMARK   65  A    between atoms: _155  and  _156
REMARK   66  A    between atoms: _161  and  _163
REMARK   67  A    between atoms: _163  and  _164
REMARK   68  A    between atoms: _167  and  _169
REMARK   69  A    between atoms: _169  and  _170
REMARK   70  A    between atoms: _169  and  _172
REMARK   71  A    between atoms: _172  and  _173
REMARK   72  A    between atoms: _173  and  _174
REMARK   73  A    between atoms: _174  and  _175
REMARK   74  A    between atoms: _175  and  _176
REMARK   75  A    between atoms: _180  and  _182
REMARK   76  A    between atoms: _182  and  _183
REMARK   77  A    between atoms: _182  and  _185
REMARK   78  A    between atoms: _185  and  _186
REMARK   79  A    between atoms: _186  and  _187
REMARK   80  A    between atoms: _187  and  _188
REMARK   81  A    between atoms: _188  and  _189
REMARK   82  A    between atoms: _193  and  _195
REMARK   83  A    between atoms: _195  and  _196
REMARK   84  A    between atoms: _195  and  _198
REMARK   85  A    between atoms: _198  and  _199
REMARK   86  A    between atoms: _199  and  _200
REMARK   87  A    between atoms: _200  and  _201
REMARK   88  A    between atoms: _210  and  _212
REMARK   89  A    between atoms: _212  and  _213
REMARK   90  A    between atoms: _212  and  _215
REMARK   91  A    between atoms: _215  and  _216
REMARK   92  A    between atoms: _216  and  _217
REMARK   93  A    between atoms: _220  and  _222
REMARK   94  A    between atoms: _222  and  _223
REMARK   95  A    between atoms: _222  and  _225
REMARK   96  A    between atoms: _228  and  _230
REMARK   97  A    between atoms: _230  and  _231
REMARK   98  A    between atoms: _234  and  _236
REMARK   99  A    between atoms: _236  and  _237
REMARK  100  A    between atoms: _236  and  _239
REMARK  101  A    between atoms: _239  and  _240
REMARK  102  A    between atoms: _250  and  _252
REMARK  103  A    between atoms: _252  and  _253
REMARK  104  A    between atoms: _252  and  _255
REMARK  105  A    between atoms: _258  and  _260
REMARK  106  A    between atoms: _260  and  _261
REMARK  107  A    between atoms: _260  and  _263
REMARK  108  A    between atoms: _263  and  _264
REMARK  109  A    between atoms: _267  and  _269
REMARK  110  A    between atoms: _269  and  _270
REMARK  111  A    between atoms: _269  and  _272
REMARK  112  A    between atoms: _272  and  _273
REMARK  113  A    between atoms: _279  and  _281
REMARK  114  A    between atoms: _281  and  _282
REMARK  115  A    between atoms: _281  and  _284
REMARK  116  A    between atoms: _284  and  _285
REMARK  117  A    between atoms: _285  and  _286
REMARK  118  A    between atoms: _291  and  _293
REMARK  119  A    between atoms: _293  and  _294
REMARK  120  A    between atoms: _293  and  _296
REMARK  121  A    between atoms: _299  and  _301
REMARK  122  A    between atoms: _301  and  _302
REMARK  123  A    between atoms: _301  and  _304
REMARK  124  A    between atoms: _304  and  _305
REMARK  125  A    between atoms: _308  and  _310
REMARK  126  A    between atoms: _310  and  _311
REMARK  127  A    between atoms: _310  and  _313
REMARK  128  A    between atoms: _313  and  _314
REMARK  129  A    between atoms: _317  and  _319
REMARK  130  A    between atoms: _319  and  _320
REMARK  131  A    between atoms: _319  and  _322
REMARK  132  A    between atoms: _322  and  _323
REMARK  133  A    between atoms: _326  and  _328
REMARK  134  A    between atoms: _328  and  _329
REMARK  135  A    between atoms: _328  and  _331
REMARK  136  A    between atoms: _331  and  _332
REMARK  137  A    between atoms: _335  and  _337
REMARK  138  A    between atoms: _337  and  _338
REMARK  139  A    between atoms: _337  and  _340
REMARK  140  A    between atoms: _340  and  _341
REMARK  141  A    between atoms: _341  and  _342
REMARK  142  A    between atoms: _342  and  _343
REMARK  143  A    between atoms: _352  and  _354
REMARK  144  A    between atoms: _354  and  _355
REMARK  145  A    between atoms: _354  and  _357
REMARK  146  A    between atoms: _357  and  _358
REMARK  147  A    between atoms: _361  and  _363
REMARK  148  A    between atoms: _363  and  _364
REMARK  149  A    between atoms: _363  and  _366
REMARK  150  A    between atoms: _366  and  _367
REMARK  151  A    between atoms: _371  and  _372
REMARK  152  A    between atoms: _377  and  _379
REMARK  153  A    between atoms: _379  and  _380
REMARK  154  A    between atoms: _379  and  _382
REMARK  155  A    between atoms: _382  and  _383
REMARK  156  A    between atoms: _388  and  _389
REMARK  157  A    between atoms: _391  and  _393
REMARK  158  A    between atoms: _393  and  _394
REMARK  159  A    between atoms: _393  and  _396
REMARK  160  A    between atoms: _396  and  _397
REMARK  161  A    between atoms: _407  and  _409
REMARK  162  A    between atoms: _409  and  _410
REMARK  163  A    between atoms: _409  and  _412
REMARK  164  A    between atoms: _412  and  _413
REMARK  165  A    between atoms: _419  and  _421
REMARK  166  A    between atoms: _421  and  _422
REMARK  167  A    between atoms: _421  and  _424
REMARK  168  A    between atoms: _424  and  _425
REMARK  169  A    between atoms: _428  and  _430
REMARK  170  A    between atoms: _430  and  _431
REMARK  171  A    between atoms: _430  and  _433
REMARK  172  A    between atoms: _433  and  _434
REMARK  173  A    between atoms: _444  and  _446
REMARK  174  A    between atoms: _446  and  _447
REMARK  175  A    between atoms: _446  and  _449
REMARK  176  A    between atoms: _449  and  _450
REMARK  177  A    between atoms: _450  and  _451
REMARK  178  A    between atoms: _453  and  _455
REMARK  179  A    between atoms: _455  and  _456
REMARK  180  A    between atoms: _455  and  _458
REMARK  181  A    between atoms: _458  and  _459
REMARK  182  A    between atoms: _464  and  _466
REMARK  183  A    between atoms: _466  and  _467
REMARK  184  A    between atoms: _470  and  _471
REMARK  185  A    between atoms: _476  and  _478
REMARK  186  A    between atoms: _478  and  _479
REMARK  187  A    between atoms: _478  and  _481
REMARK  188  A    between atoms: _481  and  _482
REMARK  189  A    between atoms: _492  and  _494
REMARK  190  A    between atoms: _494  and  _495
REMARK  191  A    between atoms: _499  and  _500
REMARK  192  A    between atoms: _505  and  _507
REMARK  193  A    between atoms: _507  and  _508
REMARK  194  A    between atoms: _507  and  _510
REMARK  195  A    between atoms: _510  and  _511
REMARK  196  A    between atoms: _511  and  _512
REMARK  197  A    between atoms: _517  and  _519
REMARK  198  A    between atoms: _519  and  _520
REMARK  199  A    between atoms: _522  and  _524
REMARK  200  A    between atoms: _524  and  _525
REMARK  201  A    between atoms: _527  and  _529
REMARK  202  A    between atoms: _529  and  _530
REMARK  203  A    between atoms: _529  and  _532
REMARK  204  A    between atoms: _532  and  _533
REMARK  205  A    between atoms: _543  and  _545
REMARK  206  A    between atoms: _545  and  _546
REMARK  207  A    between atoms: _545  and  _548
REMARK  208  A    between atoms: _548  and  _549
REMARK  209  A    between atoms: _552  and  _554
REMARK  210  A    between atoms: _554  and  _555
REMARK  211  A    between atoms: _554  and  _557
REMARK  212  A    between atoms: _557  and  _558
REMARK  213  A    between atoms: _561  and  _563
REMARK  214  A    between atoms: _563  and  _564
REMARK  215  A    between atoms: _563  and  _566
REMARK  216  A    between atoms: _566  and  _567
REMARK  217  A    between atoms: _567  and  _568
REMARK  218  A    between atoms: _568  and  _569
REMARK  219  A    between atoms: _578  and  _580
REMARK  220  A    between atoms: _580  and  _581
REMARK  221  A    between atoms: _580  and  _583
REMARK  222  A    between atoms: _583  and  _584
REMARK  223  A    between atoms: _594  and  _596
REMARK  224  A    between atoms: _596  and  _597
REMARK  225  A    between atoms: _600  and  _602
REMARK  226  A    between atoms: _602  and  _603
REMARK  227  A    between atoms: _602  and  _605
REMARK  228  A    between atoms: _605  and  _606
REMARK  229  A    between atoms: _606  and  _607
REMARK  230  A    between atoms: _610  and  _612
REMARK  231  A    between atoms: _612  and  _613
REMARK  232  A    between atoms: _615  and  _617
REMARK  233  A    between atoms: _617  and  _618
REMARK  234  A    between atoms: _617  and  _620
REMARK  235  A    between atoms: _620  and  _621
REMARK  236  A    between atoms: _626  and  _628
REMARK  237  A    between atoms: _628  and  _629
REMARK  238  A    between atoms: _632  and  _634
REMARK  239  A    between atoms: _634  and  _635
REMARK  240  A    between atoms: _634  and  _637
REMARK  241  A    between atoms: _637  and  _638
REMARK  242  A    between atoms: _641  and  _643
REMARK  243  A    between atoms: _643  and  _644
REMARK  244  A    between atoms: _643  and  _646
REMARK  245  A    between atoms: _646  and  _647
REMARK  246  A    between atoms: _653  and  _655
REMARK  247  A    between atoms: _655  and  _656
REMARK  248  A    between atoms: _655  and  _658
REMARK  249  A    between atoms: _658  and  _659
REMARK  250  A    between atoms: _659  and  _660
REMARK  251  A    between atoms: _663  and  _665
REMARK  252  A    between atoms: _665  and  _666
REMARK  253  A    between atoms: _665  and  _668
REMARK  254  A    between atoms: _668  and  _669
REMARK  255  A    between atoms: _669  and  _670
REMARK  256  A    between atoms: _670  and  _671
REMARK                            x       y       z     vdW  Elec       q    Type
REMARK                         _______ _______ _______ _____ _____    ______ ____
ROOT
ATOM      1  O   HOH     1      -9.710  -7.795  13.304  0.00  0.00    +0.000 OA
ENDROOT
TORSDOF 0
REMARK  Name = ../refined-set-2016/3k00/3k00_pocket.pdb
REMARK  256 active torsions:
REMARK  status: ('A' for Active; 'I' for Inactive)
REMARK    1  A    between atoms: _1  and  _3
REMARK    2  A    between atoms: _3  and  _4
REMARK    3  A    between atoms: _3  and  _6
REMARK    4  A    between atoms: _6  and  _7
REMARK    5  A    between atoms: _10  and  _12
REMARK    6  A    between atoms: _12  and  _13
REMARK    7  A    between atoms: _12  and  _15
REMARK    8  A    between atoms: _15  and  _16
REMARK    9  A    between atoms: _19  and  _21
REMARK   10  A    between atoms: _21  and  _22
REMARK   11  A    between atoms: _21  and  _24
REMARK   12  A    between atoms: _24  and  _25
REMARK   13  A    between atoms: _27  and  _29
REMARK   14  A    between atoms: _29  and  _30
REMARK   15  A    between atoms: _29  and  _32
REMARK   16  A    between atoms: _32  and  _33
REMARK   17  A    between atoms: _38  and  _40
REMARK   18  A    between atoms: _40  and  _41
REMARK   19  A    between atoms: _40  and  _43
REMARK   20  A    between atoms: _43  and  _44
REMARK   21  A    between atoms: _44  and  _45
REMARK   22  A    between atoms: _48  and  _50
REMARK   23  A    between atoms: _50  and  _51
REMARK   24  A    between atoms: _54  and  _56
REMARK   25  A    between atoms: _56  and  _57
REMARK   26  A    between atoms: _56  and  _59
REMARK   27  A    between atoms: _59  and  _60
REMARK   28  A    between atoms: _60  and  _61
REMARK   29  A    between atoms: _64  and  _66
REMARK   30  A    between atoms: _66  and  _67
REMARK   31  A    between atoms: _66  and  _69
REMARK   32  A    between atoms: _69  and  _70
REMARK   33  A    between atoms: _70  and  _71
REMARK   34  A    between atoms: _71  and  _72
REMARK   35  A    between atoms: _72  and  _73
REMARK   36  A    between atoms: _77  and  _79
REMARK   37  A    between atoms: _79  and  _80
REMARK   38  A    between atoms: _79  and  _82
REMARK   39  A    between atoms: _82  and  _83
REMARK   40  A    between atoms: _88  and  _89
REMARK   41  A    between atoms: _91  and  _93
REMARK   42  A    between atoms: _93  and  _94
REMARK   43  A    between atoms: _93  and  _96
REMARK   44  A    between atoms: _96  and  _97
REMARK   45  A    between atoms: _102  and  _104
REMARK   46  A    between atoms: _104  and  _105
REMARK   47  A    between atoms: _104  and  _107
REMARK   48  A    between atoms: _111  and  _112
REMARK   49  A    between atoms: _117  and  _119
REMARK   50  A    between atoms: _119  and  _120
REMARK   51  A    between atoms: _119  and  _122
REMARK   52  A    between atoms: _122  and  _123
REMARK   53  A    between atoms: _129  and  _131
REMARK   54  A    between atoms: _131  and  _132
REMARK   55  A    between atoms: _134  and  _136
REMARK   56  A    between atoms: _136  and  _137
REMARK   57  A    between atoms: _136  and  _139
REMARK   58  A    between atoms: _139  and  _140
REMARK   59  A    between atoms: _140  and  _141
REMARK   60  A    between atoms: _144  and  _146
REMARK   61  A    between atoms: _146  and  _147
REMARK   62  A    between atoms: _150  and  _152
REMARK   63  A    between atoms: _152  and  _153
REMARK   64  A    between atoms: _152  and  _155
REMARK   65  A    between atoms: _155  and  _156
REMARK   66  A    between atoms: _161  and  _163
REMARK   67  A    between atoms: _163  and  _164
REMARK   68  A    between atoms: _167  and  _169
REMARK   69  A    between atoms: _169  and  _170
REMARK   70  A    between atoms: _169  and  _172
REMARK   71  A    between atoms: _172  and  _173
REMARK   72  A    between atoms: _173  and  _174
REMARK   73  A    between atoms: _174  and  _175
REMARK   74  A    between atoms: _175  and  _176
REMARK   75  A    between atoms: _180  and  _182
REMARK   76  A    between atoms: _182  and  _183
REMARK   77  A    between atoms: _182  and  _185
REMARK   78  A    between atoms: _185  and  _186
REMARK   79  A    between atoms: _186  and  _187
REMARK   80  A    between atoms: _187  and  _188
REMARK   81  A    between atoms: _188  and  _189
REMARK   82  A    between atoms: _193  and  _195
REMARK   83  A    between atoms: _195  and  _196
REMARK   84  A    between atoms: _195  and  _198
REMARK   85  A    between atoms: _198  and  _199
REMARK   86  A    between atoms: _199  and  _200
REMARK   87  A    between atoms: _200  and  _201
REMARK   88  A    between atoms: _210  and  _212
REMARK   89  A    between atoms: _212  and  _213
REMARK   90  A    between atoms: _212  and  _215
REMARK   91  A    between atoms: _215  and  _216
REMARK   92  A    between atoms: _216  and  _217
REMARK   93  A    between atoms: _220  and  _222
REMARK   94  A    between atoms: _222  and  _223
REMARK   95  A    between atoms: _222  and  _225
REMARK   96  A    between atoms: _228  and  _230
REMARK   97  A    between atoms: _230  and  _231
REMARK   98  A    between atoms: _234  and  _236
REMARK   99  A    between atoms: _236  and  _237
REMARK  100  A    between atoms: _236  and  _239
REMARK  101  A    between atoms: _239  and  _240
REMARK  102  A    between atoms: _250  and  _252
REMARK  103  A    between atoms: _252  and  _253
REMARK  104  A    between atoms: _252  and  _255
REMARK  105  A    between atoms: _258  and  _260
REMARK  106  A    between atoms: _260  and  _261
REMARK  107  A    between atoms: _260  and  _263
REMARK  108  A    between atoms: _263  and  _264
REMARK  109  A    between atoms: _267  and  _269
REMARK  110  A    between atoms: _269  and  _270
REMARK  111  A    between atoms: _269  and  _272
REMARK  112  A    between atoms: _272  and  _273
REMARK  113  A    between atoms: _279  and  _281
REMARK  114  A    between atoms: _281  and  _282
REMARK  115  A    between atoms: _281  and  _284
REMARK  116  A    between atoms: _284  and  _285
REMARK  117  A    between atoms: _285  and  _286
REMARK  118  A    between atoms: _291  and  _293
REMARK  119  A    between atoms: _293  and  _294
REMARK  120  A    between atoms: _293  and  _296
REMARK  121  A    between atoms: _299  and  _301
REMARK  122  A    between atoms: _301  and  _302
REMARK  123  A    between atoms: _301  and  _304
REMARK  124  A    between atoms: _304  and  _305
REMARK  125  A    between atoms: _308  and  _310
REMARK  126  A    between atoms: _310  and  _311
REMARK  127  A    between atoms: _310  and  _313
REMARK  128  A    between atoms: _313  and  _314
REMARK  129  A    between atoms: _317  and  _319
REMARK  130  A    between atoms: _319  and  _320
REMARK  131  A    between atoms: _319  and  _322
REMARK  132  A    between atoms: _322  and  _323
REMARK  133  A    between atoms: _326  and  _328
REMARK  134  A    between atoms: _328  and  _329
REMARK  135  A    between atoms: _328  and  _331
REMARK  136  A    between atoms: _331  and  _332
REMARK  137  A    between atoms: _335  and  _337
REMARK  138  A    between atoms: _337  and  _338
REMARK  139  A    between atoms: _337  and  _340
REMARK  140  A    between atoms: _340  and  _341
REMARK  141  A    between atoms: _341  and  _342
REMARK  142  A    between atoms: _342  and  _343
REMARK  143  A    between atoms: _352  and  _354
REMARK  144  A    between atoms: _354  and  _355
REMARK  145  A    between atoms: _354  and  _357
REMARK  146  A    between atoms: _357  and  _358
REMARK  147  A    between atoms: _361  and  _363
REMARK  148  A    between atoms: _363  and  _364
REMARK  149  A    between atoms: _363  and  _366
REMARK  150  A    between atoms: _366  and  _367
REMARK  151  A    between atoms: _371  and  _372
REMARK  152  A    between atoms: _377  and  _379
REMARK  153  A    between atoms: _379  and  _380
REMARK  154  A    between atoms: _379  and  _382
REMARK  155  A    between atoms: _382  and  _383
REMARK  156  A    between atoms: _388  and  _389
REMARK  157  A    between atoms: _391  and  _393
REMARK  158  A    between atoms: _393  and  _394
REMARK  159  A    between atoms: _393  and  _396
REMARK  160  A    between atoms: _396  and  _397
REMARK  161  A    between atoms: _407  and  _409
REMARK  162  A    between atoms: _409  and  _410
REMARK  163  A    between atoms: _409  and  _412
REMARK  164  A    between atoms: _412  and  _413
REMARK  165  A    between atoms: _419  and  _421
REMARK  166  A    between atoms: _421  and  _422
REMARK  167  A    between atoms: _421  and  _424
REMARK  168  A    between atoms: _424  and  _425
REMARK  169  A    between atoms: _428  and  _430
REMARK  170  A    between atoms: _430  and  _431
REMARK  171  A    between atoms: _430  and  _433
REMARK  172  A    between atoms: _433  and  _434
REMARK  173  A    between atoms: _444  and  _446
REMARK  174  A    between atoms: _446  and  _447
REMARK  175  A    between atoms: _446  and  _449
REMARK  176  A    between atoms: _449  and  _450
REMARK  177  A    between atoms: _450  and  _451
REMARK  178  A    between atoms: _453  and  _455
REMARK  179  A    between atoms: _455  and  _456
REMARK  180  A    between atoms: _455  and  _458
REMARK  181  A    between atoms: _458  and  _459
REMARK  182  A    between atoms: _464  and  _466
REMARK  183  A    between atoms: _466  and  _467
REMARK  184  A    between atoms: _470  and  _471
REMARK  185  A    between atoms: _476  and  _478
REMARK  186  A    between atoms: _478  and  _479
REMARK  187  A    between atoms: _478  and  _481
REMARK  188  A    between atoms: _481  and  _482
REMARK  189  A    between atoms: _492  and  _494
REMARK  190  A    between atoms: _494  and  _495
REMARK  191  A    between atoms: _499  and  _500
REMARK  192  A    between atoms: _505  and  _507
REMARK  193  A    between atoms: _507  and  _508
REMARK  194  A    between atoms: _507  and  _510
REMARK  195  A    between atoms: _510  and  _511
REMARK  196  A    between atoms: _511  and  _512
REMARK  197  A    between atoms: _517  and  _519
REMARK  198  A    between atoms: _519  and  _520
REMARK  199  A    between atoms: _522  and  _524
REMARK  200  A    between atoms: _524  and  _525
REMARK  201  A    between atoms: _527  and  _529
REMARK  202  A    between atoms: _529  and  _530
REMARK  203  A    between atoms: _529  and  _532
REMARK  204  A    between atoms: _532  and  _533
REMARK  205  A    between atoms: _543  and  _545
REMARK  206  A    between atoms: _545  and  _546
REMARK  207  A    between atoms: _545  and  _548
REMARK  208  A    between atoms: _548  and  _549
REMARK  209  A    between atoms: _552  and  _554
REMARK  210  A    between atoms: _554  and  _555
REMARK  211  A    between atoms: _554  and  _557
REMARK  212  A    between atoms: _557  and  _558
REMARK  213  A    between atoms: _561  and  _563
REMARK  214  A    between atoms: _563  and  _564
REMARK  215  A    between atoms: _563  and  _566
REMARK  216  A    between atoms: _566  and  _567
REMARK  217  A    between atoms: _567  and  _568
REMARK  218  A    between atoms: _568  and  _569
REMARK  219  A    between atoms: _578  and  _580
REMARK  220  A    between atoms: _580  and  _581
REMARK  221  A    between atoms: _580  and  _583
REMARK  222  A    between atoms: _583  and  _584
REMARK  223  A    between atoms: _594  and  _596
REMARK  224  A    between atoms: _596  and  _597
REMARK  225  A    between atoms: _600  and  _602
REMARK  226  A    between atoms: _602  and  _603
REMARK  227  A    between atoms: _602  and  _605
REMARK  228  A    between atoms: _605  and  _606
REMARK  229  A    between atoms: _606  and  _607
REMARK  230  A    between atoms: _610  and  _612
REMARK  231  A    between atoms: _612  and  _613
REMARK  232  A    between atoms: _615  and  _617
REMARK  233  A    between atoms: _617  and  _618
REMARK  234  A    between atoms: _617  and  _620
REMARK  235  A    between atoms: _620  and  _621
REMARK  236  A    between atoms: _626  and  _628
REMARK  237  A    between atoms: _628  and  _629
REMARK  238  A    between atoms: _632  and  _634
REMARK  239  A    between atoms: _634  and  _635
REMARK  240  A    between atoms: _634  and  _637
REMARK  241  A    between atoms: _637  and  _638
REMARK  242  A    between atoms: _641  and  _643
REMARK  243  A    between atoms: _643  and  _644
REMARK  244  A    between atoms: _643  and  _646
REMARK  245  A    between atoms: _646  and  _647
REMARK  246  A    between atoms: _653  and  _655
REMARK  247  A    between atoms: _655  and  _656
REMARK  248  A    between atoms: _655  and  _658
REMARK  249  A    between atoms: _658  and  _659
REMARK  250  A    between atoms: _659  and  _660
REMARK  251  A    between atoms: _663  and  _665
REMARK  252  A    between atoms: _665  and  _666
REMARK  253  A    between atoms: _665  and  _668
REMARK  254  A    between atoms: _668  and  _669
REMARK  255  A    between atoms: _669  and  _670
REMARK  256  A    between atoms: _670  and  _671
REMARK                            x       y       z     vdW  Elec       q    Type
REMARK                         _______ _______ _______ _____ _____    ______ ____
ROOT
ATOM      1  O   HOH     1     -14.607  -5.557  18.186  0.00  0.00    +0.000 OA
ENDROOT
TORSDOF 0
REMARK  Name = ../refined-set-2016/3k00/3k00_pocket.pdb
REMARK  256 active torsions:
REMARK  status: ('A' for Active; 'I' for Inactive)
REMARK    1  A    between atoms: _1  and  _3
REMARK    2  A    between atoms: _3  and  _4
REMARK    3  A    between atoms: _3  and  _6
REMARK    4  A    between atoms: _6  and  _7
REMARK    5  A    between atoms: _10  and  _12
REMARK    6  A    between atoms: _12  and  _13
REMARK    7  A    between atoms: _12  and  _15
REMARK    8  A    between atoms: _15  and  _16
REMARK    9  A    between atoms: _19  and  _21
REMARK   10  A    between atoms: _21  and  _22
REMARK   11  A    between atoms: _21  and  _24
REMARK   12  A    between atoms: _24  and  _25
REMARK   13  A    between atoms: _27  and  _29
REMARK   14  A    between atoms: _29  and  _30
REMARK   15  A    between atoms: _29  and  _32
REMARK   16  A    between atoms: _32  and  _33
REMARK   17  A    between atoms: _38  and  _40
REMARK   18  A    between atoms: _40  and  _41
REMARK   19  A    between atoms: _40  and  _43
REMARK   20  A    between atoms: _43  and  _44
REMARK   21  A    between atoms: _44  and  _45
REMARK   22  A    between atoms: _48  and  _50
REMARK   23  A    between atoms: _50  and  _51
REMARK   24  A    between atoms: _54  and  _56
REMARK   25  A    between atoms: _56  and  _57
REMARK   26  A    between atoms: _56  and  _59
REMARK   27  A    between atoms: _59  and  _60
REMARK   28  A    between atoms: _60  and  _61
REMARK   29  A    between atoms: _64  and  _66
REMARK   30  A    between atoms: _66  and  _67
REMARK   31  A    between atoms: _66  and  _69
REMARK   32  A    between atoms: _69  and  _70
REMARK   33  A    between atoms: _70  and  _71
REMARK   34  A    between atoms: _71  and  _72
REMARK   35  A    between atoms: _72  and  _73
REMARK   36  A    between atoms: _77  and  _79
REMARK   37  A    between atoms: _79  and  _80
REMARK   38  A    between atoms: _79  and  _82
REMARK   39  A    between atoms: _82  and  _83
REMARK   40  A    between atoms: _88  and  _89
REMARK   41  A    between atoms: _91  and  _93
REMARK   42  A    between atoms: _93  and  _94
REMARK   43  A    between atoms: _93  and  _96
REMARK   44  A    between atoms: _96  and  _97
REMARK   45  A    between atoms: _102  and  _104
REMARK   46  A    between atoms: _104  and  _105
REMARK   47  A    between atoms: _104  and  _107
REMARK   48  A    between atoms: _111  and  _112
REMARK   49  A    between atoms: _117  and  _119
REMARK   50  A    between atoms: _119  and  _120
REMARK   51  A    between atoms: _119  and  _122
REMARK   52  A    between atoms: _122  and  _123
REMARK   53  A    between atoms: _129  and  _131
REMARK   54  A    between atoms: _131  and  _132
REMARK   55  A    between atoms: _134  and  _136
REMARK   56  A    between atoms: _136  and  _137
REMARK   57  A    between atoms: _136  and  _139
REMARK   58  A    between atoms: _139  and  _140
REMARK   59  A    between atoms: _140  and  _141
REMARK   60  A    between atoms: _144  and  _146
REMARK   61  A    between atoms: _146  and  _147
REMARK   62  A    between atoms: _150  and  _152
REMARK   63  A    between atoms: _152  and  _153
REMARK   64  A    between atoms: _152  and  _155
REMARK   65  A    between atoms: _155  and  _156
REMARK   66  A    between atoms: _161  and  _163
REMARK   67  A    between atoms: _163  and  _164
REMARK   68  A    between atoms: _167  and  _169
REMARK   69  A    between atoms: _169  and  _170
REMARK   70  A    between atoms: _169  and  _172
REMARK   71  A    between atoms: _172  and  _173
REMARK   72  A    between atoms: _173  and  _174
REMARK   73  A    between atoms: _174  and  _175
REMARK   74  A    between atoms: _175  and  _176
REMARK   75  A    between atoms: _180  and  _182
REMARK   76  A    between atoms: _182  and  _183
REMARK   77  A    between atoms: _182  and  _185
REMARK   78  A    between atoms: _185  and  _186
REMARK   79  A    between atoms: _186  and  _187
REMARK   80  A    between atoms: _187  and  _188
REMARK   81  A    between atoms: _188  and  _189
REMARK   82  A    between atoms: _193  and  _195
REMARK   83  A    between atoms: _195  and  _196
REMARK   84  A    between atoms: _195  and  _198
REMARK   85  A    between atoms: _198  and  _199
REMARK   86  A    between atoms: _199  and  _200
REMARK   87  A    between atoms: _200  and  _201
REMARK   88  A    between atoms: _210  and  _212
REMARK   89  A    between atoms: _212  and  _213
REMARK   90  A    between atoms: _212  and  _215
REMARK   91  A    between atoms: _215  and  _216
REMARK   92  A    between atoms: _216  and  _217
REMARK   93  A    between atoms: _220  and  _222
REMARK   94  A    between atoms: _222  and  _223
REMARK   95  A    between atoms: _222  and  _225
REMARK   96  A    between atoms: _228  and  _230
REMARK   97  A    between atoms: _230  and  _231
REMARK   98  A    between atoms: _234  and  _236
REMARK   99  A    between atoms: _236  and  _237
REMARK  100  A    between atoms: _236  and  _239
REMARK  101  A    between atoms: _239  and  _240
REMARK  102  A    between atoms: _250  and  _252
REMARK  103  A    between atoms: _252  and  _253
REMARK  104  A    between atoms: _252  and  _255
REMARK  105  A    between atoms: _258  and  _260
REMARK  106  A    between atoms: _260  and  _261
REMARK  107  A    between atoms: _260  and  _263
REMARK  108  A    between atoms: _263  and  _264
REMARK  109  A    between atoms: _267  and  _269
REMARK  110  A    between atoms: _269  and  _270
REMARK  111  A    between atoms: _269  and  _272
REMARK  112  A    between atoms: _272  and  _273
REMARK  113  A    between atoms: _279  and  _281
REMARK  114  A    between atoms: _281  and  _282
REMARK  115  A    between atoms: _281  and  _284
REMARK  116  A    between atoms: _284  and  _285
REMARK  117  A    between atoms: _285  and  _286
REMARK  118  A    between atoms: _291  and  _293
REMARK  119  A    between atoms: _293  and  _294
REMARK  120  A    between atoms: _293  and  _296
REMARK  121  A    between atoms: _299  and  _301
REMARK  122  A    between atoms: _301  and  _302
REMARK  123  A    between atoms: _301  and  _304
REMARK  124  A    between atoms: _304  and  _305
REMARK  125  A    between atoms: _308  and  _310
REMARK  126  A    between atoms: _310  and  _311
REMARK  127  A    between atoms: _310  and  _313
REMARK  128  A    between atoms: _313  and  _314
REMARK  129  A    between atoms: _317  and  _319
REMARK  130  A    between atoms: _319  and  _320
REMARK  131  A    between atoms: _319  and  _322
REMARK  132  A    between atoms: _322  and  _323
REMARK  133  A    between atoms: _326  and  _328
REMARK  134  A    between atoms: _328  and  _329
REMARK  135  A    between atoms: _328  and  _331
REMARK  136  A    between atoms: _331  and  _332
REMARK  137  A    between atoms: _335  and  _337
REMARK  138  A    between atoms: _337  and  _338
REMARK  139  A    between atoms: _337  and  _340
REMARK  140  A    between atoms: _340  and  _341
REMARK  141  A    between atoms: _341  and  _342
REMARK  142  A    between atoms: _342  and  _343
REMARK  143  A    between atoms: _352  and  _354
REMARK  144  A    between atoms: _354  and  _355
REMARK  145  A    between atoms: _354  and  _357
REMARK  146  A    between atoms: _357  and  _358
REMARK  147  A    between atoms: _361  and  _363
REMARK  148  A    between atoms: _363  and  _364
REMARK  149  A    between atoms: _363  and  _366
REMARK  150  A    between atoms: _366  and  _367
REMARK  151  A    between atoms: _371  and  _372
REMARK  152  A    between atoms: _377  and  _379
REMARK  153  A    between atoms: _379  and  _380
REMARK  154  A    between atoms: _379  and  _382
REMARK  155  A    between atoms: _382  and  _383
REMARK  156  A    between atoms: _388  and  _389
REMARK  157  A    between atoms: _391  and  _393
REMARK  158  A    between atoms: _393  and  _394
REMARK  159  A    between atoms: _393  and  _396
REMARK  160  A    between atoms: _396  and  _397
REMARK  161  A    between atoms: _407  and  _409
REMARK  162  A    between atoms: _409  and  _410
REMARK  163  A    between atoms: _409  and  _412
REMARK  164  A    between atoms: _412  and  _413
REMARK  165  A    between atoms: _419  and  _421
REMARK  166  A    between atoms: _421  and  _422
REMARK  167  A    between atoms: _421  and  _424
REMARK  168  A    between atoms: _424  and  _425
REMARK  169  A    between atoms: _428  and  _430
REMARK  170  A    between atoms: _430  and  _431
REMARK  171  A    between atoms: _430  and  _433
REMARK  172  A    between atoms: _433  and  _434
REMARK  173  A    between atoms: _444  and  _446
REMARK  174  A    between atoms: _446  and  _447
REMARK  175  A    between atoms: _446  and  _449
REMARK  176  A    between atoms: _449  and  _450
REMARK  177  A    between atoms: _450  and  _451
REMARK  178  A    between atoms: _453  and  _455
REMARK  179  A    between atoms: _455  and  _456
REMARK  180  A    between atoms: _455  and  _458
REMARK  181  A    between atoms: _458  and  _459
REMARK  182  A    between atoms: _464  and  _466
REMARK  183  A    between atoms: _466  and  _467
REMARK  184  A    between atoms: _470  and  _471
REMARK  185  A    between atoms: _476  and  _478
REMARK  186  A    between atoms: _478  and  _479
REMARK  187  A    between atoms: _478  and  _481
REMARK  188  A    between atoms: _481  and  _482
REMARK  189  A    between atoms: _492  and  _494
REMARK  190  A    between atoms: _494  and  _495
REMARK  191  A    between atoms: _499  and  _500
REMARK  192  A    between atoms: _505  and  _507
REMARK  193  A    between atoms: _507  and  _508
REMARK  194  A    between atoms: _507  and  _510
REMARK  195  A    between atoms: _510  and  _511
REMARK  196  A    between atoms: _511  and  _512
REMARK  197  A    between atoms: _517  and  _519
REMARK  198  A    between atoms: _519  and  _520
REMARK  199  A    between atoms: _522  and  _524
REMARK  200  A    between atoms: _524  and  _525
REMARK  201  A    between atoms: _527  and  _529
REMARK  202  A    between atoms: _529  and  _530
REMARK  203  A    between atoms: _529  and  _532
REMARK  204  A    between atoms: _532  and  _533
REMARK  205  A    between atoms: _543  and  _545
REMARK  206  A    between atoms: _545  and  _546
REMARK  207  A    between atoms: _545  and  _548
REMARK  208  A    between atoms: _548  and  _549
REMARK  209  A    between atoms: _552  and  _554
REMARK  210  A    between atoms: _554  and  _555
REMARK  211  A    between atoms: _554  and  _557
REMARK  212  A    between atoms: _557  and  _558
REMARK  213  A    between atoms: _561  and  _563
REMARK  214  A    between atoms: _563  and  _564
REMARK  215  A    between atoms: _563  and  _566
REMARK  216  A    between atoms: _566  and  _567
REMARK  217  A    between atoms: _567  and  _568
REMARK  218  A    between atoms: _568  and  _569
REMARK  219  A    between atoms: _578  and  _580
REMARK  220  A    between atoms: _580  and  _581
REMARK  221  A    between atoms: _580  and  _583
REMARK  222  A    between atoms: _583  and  _584
REMARK  223  A    between atoms: _594  and  _596
REMARK  224  A    between atoms: _596  and  _597
REMARK  225  A    between atoms: _600  and  _602
REMARK  226  A    between atoms: _602  and  _603
REMARK  227  A    between atoms: _602  and  _605
REMARK  228  A    between atoms: _605  and  _606
REMARK  229  A    between atoms: _606  and  _607
REMARK  230  A    between atoms: _610  and  _612
REMARK  231  A    between atoms: _612  and  _613
REMARK  232  A    between atoms: _615  and  _617
REMARK  233  A    between atoms: _617  and  _618
REMARK  234  A    between atoms: _617  and  _620
REMARK  235  A    between atoms: _620  and  _621
REMARK  236  A    between atoms: _626  and  _628
REMARK  237  A    between atoms: _628  and  _629
REMARK  238  A    between atoms: _632  and  _634
REMARK  239  A    between atoms: _634  and  _635
REMARK  240  A    between atoms: _634  and  _637
REMARK  241  A    between atoms: _637  and  _638
REMARK  242  A    between atoms: _641  and  _643
REMARK  243  A    between atoms: _643  and  _644
REMARK  244  A    between atoms: _643  and  _646
REMARK  245  A    between atoms: _646  and  _647
REMARK  246  A    between atoms: _653  and  _655
REMARK  247  A    between atoms: _655  and  _656
REMARK  248  A    between atoms: _655  and  _658
REMARK  249  A    between atoms: _658  and  _659
REMARK  250  A    between atoms: _659  and  _660
REMARK  251  A    between atoms: _663  and  _665
REMARK  252  A    between atoms: _665  and  _666
REMARK  253  A    between atoms: _665  and  _668
REMARK  254  A    between atoms: _668  and  _669
REMARK  255  A    between atoms: _669  and  _670
REMARK  256  A    between atoms: _670  and  _671
REMARK                            x       y       z     vdW  Elec       q    Type
REMARK                         _______ _______ _______ _____ _____    ______ ____
ROOT
ATOM      1  O   HOH     1      -9.208 -10.445  18.528  0.00  0.00    +0.000 OA
ENDROOT
TORSDOF 0
REMARK  Name = ../refined-set-2016/3k00/3k00_pocket.pdb
REMARK  256 active torsions:
REMARK  status: ('A' for Active; 'I' for Inactive)
REMARK    1  A    between atoms: _1  and  _3
REMARK    2  A    between atoms: _3  and  _4
REMARK    3  A    between atoms: _3  and  _6
REMARK    4  A    between atoms: _6  and  _7
REMARK    5  A    between atoms: _10  and  _12
REMARK    6  A    between atoms: _12  and  _13
REMARK    7  A    between atoms: _12  and  _15
REMARK    8  A    between atoms: _15  and  _16
REMARK    9  A    between atoms: _19  and  _21
REMARK   10  A    between atoms: _21  and  _22
REMARK   11  A    between atoms: _21  and  _24
REMARK   12  A    between atoms: _24  and  _25
REMARK   13  A    between atoms: _27  and  _29
REMARK   14  A    between atoms: _29  and  _30
REMARK   15  A    between atoms: _29  and  _32
REMARK   16  A    between atoms: _32  and  _33
REMARK   17  A    between atoms: _38  and  _40
REMARK   18  A    between atoms: _40  and  _41
REMARK   19  A    between atoms: _40  and  _43
REMARK   20  A    between atoms: _43  and  _44
REMARK   21  A    between atoms: _44  and  _45
REMARK   22  A    between atoms: _48  and  _50
REMARK   23  A    between atoms: _50  and  _51
REMARK   24  A    between atoms: _54  and  _56
REMARK   25  A    between atoms: _56  and  _57
REMARK   26  A    between atoms: _56  and  _59
REMARK   27  A    between atoms: _59  and  _60
REMARK   28  A    between atoms: _60  and  _61
REMARK   29  A    between atoms: _64  and  _66
REMARK   30  A    between atoms: _66  and  _67
REMARK   31  A    between atoms: _66  and  _69
REMARK   32  A    between atoms: _69  and  _70
REMARK   33  A    between atoms: _70  and  _71
REMARK   34  A    between atoms: _71  and  _72
REMARK   35  A    between atoms: _72  and  _73
REMARK   36  A    between atoms: _77  and  _79
REMARK   37  A    between atoms: _79  and  _80
REMARK   38  A    between atoms: _79  and  _82
REMARK   39  A    between atoms: _82  and  _83
REMARK   40  A    between atoms: _88  and  _89
REMARK   41  A    between atoms: _91  and  _93
REMARK   42  A    between atoms: _93  and  _94
REMARK   43  A    between atoms: _93  and  _96
REMARK   44  A    between atoms: _96  and  _97
REMARK   45  A    between atoms: _102  and  _104
REMARK   46  A    between atoms: _104  and  _105
REMARK   47  A    between atoms: _104  and  _107
REMARK   48  A    between atoms: _111  and  _112
REMARK   49  A    between atoms: _117  and  _119
REMARK   50  A    between atoms: _119  and  _120
REMARK   51  A    between atoms: _119  and  _122
REMARK   52  A    between atoms: _122  and  _123
REMARK   53  A    between atoms: _129  and  _131
REMARK   54  A    between atoms: _131  and  _132
REMARK   55  A    between atoms: _134  and  _136
REMARK   56  A    between atoms: _136  and  _137
REMARK   57  A    between atoms: _136  and  _139
REMARK   58  A    between atoms: _139  and  _140
REMARK   59  A    between atoms: _140  and  _141
REMARK   60  A    between atoms: _144  and  _146
REMARK   61  A    between atoms: _146  and  _147
REMARK   62  A    between atoms: _150  and  _152
REMARK   63  A    between atoms: _152  and  _153
REMARK   64  A    between atoms: _152  and  _155
REMARK   65  A    between atoms: _155  and  _156
REMARK   66  A    between atoms: _161  and  _163
REMARK   67  A    between atoms: _163  and  _164
REMARK   68  A    between atoms: _167  and  _169
REMARK   69  A    between atoms: _169  and  _170
REMARK   70  A    between atoms: _169  and  _172
REMARK   71  A    between atoms: _172  and  _173
REMARK   72  A    between atoms: _173  and  _174
REMARK   73  A    between atoms: _174  and  _175
REMARK   74  A    between atoms: _175  and  _176
REMARK   75  A    between atoms: _180  and  _182
REMARK   76  A    between atoms: _182  and  _183
REMARK   77  A    between atoms: _182  and  _185
REMARK   78  A    between atoms: _185  and  _186
REMARK   79  A    between atoms: _186  and  _187
REMARK   80  A    between atoms: _187  and  _188
REMARK   81  A    between atoms: _188  and  _189
REMARK   82  A    between atoms: _193  and  _195
REMARK   83  A    between atoms: _195  and  _196
REMARK   84  A    between atoms: _195  and  _198
REMARK   85  A    between atoms: _198  and  _199
REMARK   86  A    between atoms: _199  and  _200
REMARK   87  A    between atoms: _200  and  _201
REMARK   88  A    between atoms: _210  and  _212
REMARK   89  A    between atoms: _212  and  _213
REMARK   90  A    between atoms: _212  and  _215
REMARK   91  A    between atoms: _215  and  _216
REMARK   92  A    between atoms: _216  and  _217
REMARK   93  A    between atoms: _220  and  _222
REMARK   94  A    between atoms: _222  and  _223
REMARK   95  A    between atoms: _222  and  _225
REMARK   96  A    between atoms: _228  and  _230
REMARK   97  A    between atoms: _230  and  _231
REMARK   98  A    between atoms: _234  and  _236
REMARK   99  A    between atoms: _236  and  _237
REMARK  100  A    between atoms: _236  and  _239
REMARK  101  A    between atoms: _239  and  _240
REMARK  102  A    between atoms: _250  and  _252
REMARK  103  A    between atoms: _252  and  _253
REMARK  104  A    between atoms: _252  and  _255
REMARK  105  A    between atoms: _258  and  _260
REMARK  106  A    between atoms: _260  and  _261
REMARK  107  A    between atoms: _260  and  _263
REMARK  108  A    between atoms: _263  and  _264
REMARK  109  A    between atoms: _267  and  _269
REMARK  110  A    between atoms: _269  and  _270
REMARK  111  A    between atoms: _269  and  _272
REMARK  112  A    between atoms: _272  and  _273
REMARK  113  A    between atoms: _279  and  _281
REMARK  114  A    between atoms: _281  and  _282
REMARK  115  A    between atoms: _281  and  _284
REMARK  116  A    between atoms: _284  and  _285
REMARK  117  A    between atoms: _285  and  _286
REMARK  118  A    between atoms: _291  and  _293
REMARK  119  A    between atoms: _293  and  _294
REMARK  120  A    between atoms: _293  and  _296
REMARK  121  A    between atoms: _299  and  _301
REMARK  122  A    between atoms: _301  and  _302
REMARK  123  A    between atoms: _301  and  _304
REMARK  124  A    between atoms: _304  and  _305
REMARK  125  A    between atoms: _308  and  _310
REMARK  126  A    between atoms: _310  and  _311
REMARK  127  A    between atoms: _310  and  _313
REMARK  128  A    between atoms: _313  and  _314
REMARK  129  A    between atoms: _317  and  _319
REMARK  130  A    between atoms: _319  and  _320
REMARK  131  A    between atoms: _319  and  _322
REMARK  132  A    between atoms: _322  and  _323
REMARK  133  A    between atoms: _326  and  _328
REMARK  134  A    between atoms: _328  and  _329
REMARK  135  A    between atoms: _328  and  _331
REMARK  136  A    between atoms: _331  and  _332
REMARK  137  A    between atoms: _335  and  _337
REMARK  138  A    between atoms: _337  and  _338
REMARK  139  A    between atoms: _337  and  _340
REMARK  140  A    between atoms: _340  and  _341
REMARK  141  A    between atoms: _341  and  _342
REMARK  142  A    between atoms: _342  and  _343
REMARK  143  A    between atoms: _352  and  _354
REMARK  144  A    between atoms: _354  and  _355
REMARK  145  A    between atoms: _354  and  _357
REMARK  146  A    between atoms: _357  and  _358
REMARK  147  A    between atoms: _361  and  _363
REMARK  148  A    between atoms: _363  and  _364
REMARK  149  A    between atoms: _363  and  _366
REMARK  150  A    between atoms: _366  and  _367
REMARK  151  A    between atoms: _371  and  _372
REMARK  152  A    between atoms: _377  and  _379
REMARK  153  A    between atoms: _379  and  _380
REMARK  154  A    between atoms: _379  and  _382
REMARK  155  A    between atoms: _382  and  _383
REMARK  156  A    between atoms: _388  and  _389
REMARK  157  A    between atoms: _391  and  _393
REMARK  158  A    between atoms: _393  and  _394
REMARK  159  A    between atoms: _393  and  _396
REMARK  160  A    between atoms: _396  and  _397
REMARK  161  A    between atoms: _407  and  _409
REMARK  162  A    between atoms: _409  and  _410
REMARK  163  A    between atoms: _409  and  _412
REMARK  164  A    between atoms: _412  and  _413
REMARK  165  A    between atoms: _419  and  _421
REMARK  166  A    between atoms: _421  and  _422
REMARK  167  A    between atoms: _421  and  _424
REMARK  168  A    between atoms: _424  and  _425
REMARK  169  A    between atoms: _428  and  _430
REMARK  170  A    between atoms: _430  and  _431
REMARK  171  A    between atoms: _430  and  _433
REMARK  172  A    between atoms: _433  and  _434
REMARK  173  A    between atoms: _444  and  _446
REMARK  174  A    between atoms: _446  and  _447
REMARK  175  A    between atoms: _446  and  _449
REMARK  176  A    between atoms: _449  and  _450
REMARK  177  A    between atoms: _450  and  _451
REMARK  178  A    between atoms: _453  and  _455
REMARK  179  A    between atoms: _455  and  _456
REMARK  180  A    between atoms: _455  and  _458
REMARK  181  A    between atoms: _458  and  _459
REMARK  182  A    between atoms: _464  and  _466
REMARK  183  A    between atoms: _466  and  _467
REMARK  184  A    between atoms: _470  and  _471
REMARK  185  A    between atoms: _476  and  _478
REMARK  186  A    between atoms: _478  and  _479
REMARK  187  A    between atoms: _478  and  _481
REMARK  188  A    between atoms: _481  and  _482
REMARK  189  A    between atoms: _492  and  _494
REMARK  190  A    between atoms: _494  and  _495
REMARK  191  A    between atoms: _499  and  _500
REMARK  192  A    between atoms: _505  and  _507
REMARK  193  A    between atoms: _507  and  _508
REMARK  194  A    between atoms: _507  and  _510
REMARK  195  A    between atoms: _510  and  _511
REMARK  196  A    between atoms: _511  and  _512
REMARK  197  A    between atoms: _517  and  _519
REMARK  198  A    between atoms: _519  and  _520
REMARK  199  A    between atoms: _522  and  _524
REMARK  200  A    between atoms: _524  and  _525
REMARK  201  A    between atoms: _527  and  _529
REMARK  202  A    between atoms: _529  and  _530
REMARK  203  A    between atoms: _529  and  _532
REMARK  204  A    between atoms: _532  and  _533
REMARK  205  A    between atoms: _543  and  _545
REMARK  206  A    between atoms: _545  and  _546
REMARK  207  A    between atoms: _545  and  _548
REMARK  208  A    between atoms: _548  and  _549
REMARK  209  A    between atoms: _552  and  _554
REMARK  210  A    between atoms: _554  and  _555
REMARK  211  A    between atoms: _554  and  _557
REMARK  212  A    between atoms: _557  and  _558
REMARK  213  A    between atoms: _561  and  _563
REMARK  214  A    between atoms: _563  and  _564
REMARK  215  A    between atoms: _563  and  _566
REMARK  216  A    between atoms: _566  and  _567
REMARK  217  A    between atoms: _567  and  _568
REMARK  218  A    between atoms: _568  and  _569
REMARK  219  A    between atoms: _578  and  _580
REMARK  220  A    between atoms: _580  and  _581
REMARK  221  A    between atoms: _580  and  _583
REMARK  222  A    between atoms: _583  and  _584
REMARK  223  A    between atoms: _594  and  _596
REMARK  224  A    between atoms: _596  and  _597
REMARK  225  A    between atoms: _600  and  _602
REMARK  226  A    between atoms: _602  and  _603
REMARK  227  A    between atoms: _602  and  _605
REMARK  228  A    between atoms: _605  and  _606
REMARK  229  A    between atoms: _606  and  _607
REMARK  230  A    between atoms: _610  and  _612
REMARK  231  A    between atoms: _612  and  _613
REMARK  232  A    between atoms: _615  and  _617
REMARK  233  A    between atoms: _617  and  _618
REMARK  234  A    between atoms: _617  and  _620
REMARK  235  A    between atoms: _620  and  _621
REMARK  236  A    between atoms: _626  and  _628
REMARK  237  A    between atoms: _628  and  _629
REMARK  238  A    between atoms: _632  and  _634
REMARK  239  A    between atoms: _634  and  _635
REMARK  240  A    between atoms: _634  and  _637
REMARK  241  A    between atoms: _637  and  _638
REMARK  242  A    between atoms: _641  and  _643
REMARK  243  A    between atoms: _643  and  _644
REMARK  244  A    between atoms: _643  and  _646
REMARK  245  A    between atoms: _646  and  _647
REMARK  246  A    between atoms: _653  and  _655
REMARK  247  A    between atoms: _655  and  _656
REMARK  248  A    between atoms: _655  and  _658
REMARK  249  A    between atoms: _658  and  _659
REMARK  250  A    between atoms: _659  and  _660
REMARK  251  A    between atoms: _663  and  _665
REMARK  252  A    between atoms: _665  and  _666
REMARK  253  A    between atoms: _665  and  _668
REMARK  254  A    between atoms: _668  and  _669
REMARK  255  A    between atoms: _669  and  _670
REMARK  256  A    between atoms: _670  and  _671
REMARK                            x       y       z     vdW  Elec       q    Type
REMARK                         _______ _______ _______ _____ _____    ______ ____
ROOT
ATOM      1  O   HOH     1     -10.043  -3.942  14.955  0.00  0.00    +0.000 OA
ENDROOT
TORSDOF 0
REMARK  Name = ../refined-set-2016/3k00/3k00_pocket.pdb
REMARK  256 active torsions:
REMARK  status: ('A' for Active; 'I' for Inactive)
REMARK    1  A    between atoms: _1  and  _3
REMARK    2  A    between atoms: _3  and  _4
REMARK    3  A    between atoms: _3  and  _6
REMARK    4  A    between atoms: _6  and  _7
REMARK    5  A    between atoms: _10  and  _12
REMARK    6  A    between atoms: _12  and  _13
REMARK    7  A    between atoms: _12  and  _15
REMARK    8  A    between atoms: _15  and  _16
REMARK    9  A    between atoms: _19  and  _21
REMARK   10  A    between atoms: _21  and  _22
REMARK   11  A    between atoms: _21  and  _24
REMARK   12  A    between atoms: _24  and  _25
REMARK   13  A    between atoms: _27  and  _29
REMARK   14  A    between atoms: _29  and  _30
REMARK   15  A    between atoms: _29  and  _32
REMARK   16  A    between atoms: _32  and  _33
REMARK   17  A    between atoms: _38  and  _40
REMARK   18  A    between atoms: _40  and  _41
REMARK   19  A    between atoms: _40  and  _43
REMARK   20  A    between atoms: _43  and  _44
REMARK   21  A    between atoms: _44  and  _45
REMARK   22  A    between atoms: _48  and  _50
REMARK   23  A    between atoms: _50  and  _51
REMARK   24  A    between atoms: _54  and  _56
REMARK   25  A    between atoms: _56  and  _57
REMARK   26  A    between atoms: _56  and  _59
REMARK   27  A    between atoms: _59  and  _60
REMARK   28  A    between atoms: _60  and  _61
REMARK   29  A    between atoms: _64  and  _66
REMARK   30  A    between atoms: _66  and  _67
REMARK   31  A    between atoms: _66  and  _69
REMARK   32  A    between atoms: _69  and  _70
REMARK   33  A    between atoms: _70  and  _71
REMARK   34  A    between atoms: _71  and  _72
REMARK   35  A    between atoms: _72  and  _73
REMARK   36  A    between atoms: _77  and  _79
REMARK   37  A    between atoms: _79  and  _80
REMARK   38  A    between atoms: _79  and  _82
REMARK   39  A    between atoms: _82  and  _83
REMARK   40  A    between atoms: _88  and  _89
REMARK   41  A    between atoms: _91  and  _93
REMARK   42  A    between atoms: _93  and  _94
REMARK   43  A    between atoms: _93  and  _96
REMARK   44  A    between atoms: _96  and  _97
REMARK   45  A    between atoms: _102  and  _104
REMARK   46  A    between atoms: _104  and  _105
REMARK   47  A    between atoms: _104  and  _107
REMARK   48  A    between atoms: _111  and  _112
REMARK   49  A    between atoms: _117  and  _119
REMARK   50  A    between atoms: _119  and  _120
REMARK   51  A    between atoms: _119  and  _122
REMARK   52  A    between atoms: _122  and  _123
REMARK   53  A    between atoms: _129  and  _131
REMARK   54  A    between atoms: _131  and  _132
REMARK   55  A    between atoms: _134  and  _136
REMARK   56  A    between atoms: _136  and  _137
REMARK   57  A    between atoms: _136  and  _139
REMARK   58  A    between atoms: _139  and  _140
REMARK   59  A    between atoms: _140  and  _141
REMARK   60  A    between atoms: _144  and  _146
REMARK   61  A    between atoms: _146  and  _147
REMARK   62  A    between atoms: _150  and  _152
REMARK   63  A    between atoms: _152  and  _153
REMARK   64  A    between atoms: _152  and  _155
REMARK   65  A    between atoms: _155  and  _156
REMARK   66  A    between atoms: _161  and  _163
REMARK   67  A    between atoms: _163  and  _164
REMARK   68  A    between atoms: _167  and  _169
REMARK   69  A    between atoms: _169  and  _170
REMARK   70  A    between atoms: _169  and  _172
REMARK   71  A    between atoms: _172  and  _173
REMARK   72  A    between atoms: _173  and  _174
REMARK   73  A    between atoms: _174  and  _175
REMARK   74  A    between atoms: _175  and  _176
REMARK   75  A    between atoms: _180  and  _182
REMARK   76  A    between atoms: _182  and  _183
REMARK   77  A    between atoms: _182  and  _185
REMARK   78  A    between atoms: _185  and  _186
REMARK   79  A    between atoms: _186  and  _187
REMARK   80  A    between atoms: _187  and  _188
REMARK   81  A    between atoms: _188  and  _189
REMARK   82  A    between atoms: _193  and  _195
REMARK   83  A    between atoms: _195  and  _196
REMARK   84  A    between atoms: _195  and  _198
REMARK   85  A    between atoms: _198  and  _199
REMARK   86  A    between atoms: _199  and  _200
REMARK   87  A    between atoms: _200  and  _201
REMARK   88  A    between atoms: _210  and  _212
REMARK   89  A    between atoms: _212  and  _213
REMARK   90  A    between atoms: _212  and  _215
REMARK   91  A    between atoms: _215  and  _216
REMARK   92  A    between atoms: _216  and  _217
REMARK   93  A    between atoms: _220  and  _222
REMARK   94  A    between atoms: _222  and  _223
REMARK   95  A    between atoms: _222  and  _225
REMARK   96  A    between atoms: _228  and  _230
REMARK   97  A    between atoms: _230  and  _231
REMARK   98  A    between atoms: _234  and  _236
REMARK   99  A    between atoms: _236  and  _237
REMARK  100  A    between atoms: _236  and  _239
REMARK  101  A    between atoms: _239  and  _240
REMARK  102  A    between atoms: _250  and  _252
REMARK  103  A    between atoms: _252  and  _253
REMARK  104  A    between atoms: _252  and  _255
REMARK  105  A    between atoms: _258  and  _260
REMARK  106  A    between atoms: _260  and  _261
REMARK  107  A    between atoms: _260  and  _263
REMARK  108  A    between atoms: _263  and  _264
REMARK  109  A    between atoms: _267  and  _269
REMARK  110  A    between atoms: _269  and  _270
REMARK  111  A    between atoms: _269  and  _272
REMARK  112  A    between atoms: _272  and  _273
REMARK  113  A    between atoms: _279  and  _281
REMARK  114  A    between atoms: _281  and  _282
REMARK  115  A    between atoms: _281  and  _284
REMARK  116  A    between atoms: _284  and  _285
REMARK  117  A    between atoms: _285  and  _286
REMARK  118  A    between atoms: _291  and  _293
REMARK  119  A    between atoms: _293  and  _294
REMARK  120  A    between atoms: _293  and  _296
REMARK  121  A    between atoms: _299  and  _301
REMARK  122  A    between atoms: _301  and  _302
REMARK  123  A    between atoms: _301  and  _304
REMARK  124  A    between atoms: _304  and  _305
REMARK  125  A    between atoms: _308  and  _310
REMARK  126  A    between atoms: _310  and  _311
REMARK  127  A    between atoms: _310  and  _313
REMARK  128  A    between atoms: _313  and  _314
REMARK  129  A    between atoms: _317  and  _319
REMARK  130  A    between atoms: _319  and  _320
REMARK  131  A    between atoms: _319  and  _322
REMARK  132  A    between atoms: _322  and  _323
REMARK  133  A    between atoms: _326  and  _328
REMARK  134  A    between atoms: _328  and  _329
REMARK  135  A    between atoms: _328  and  _331
REMARK  136  A    between atoms: _331  and  _332
REMARK  137  A    between atoms: _335  and  _337
REMARK  138  A    between atoms: _337  and  _338
REMARK  139  A    between atoms: _337  and  _340
REMARK  140  A    between atoms: _340  and  _341
REMARK  141  A    between atoms: _341  and  _342
REMARK  142  A    between atoms: _342  and  _343
REMARK  143  A    between atoms: _352  and  _354
REMARK  144  A    between atoms: _354  and  _355
REMARK  145  A    between atoms: _354  and  _357
REMARK  146  A    between atoms: _357  and  _358
REMARK  147  A    between atoms: _361  and  _363
REMARK  148  A    between atoms: _363  and  _364
REMARK  149  A    between atoms: _363  and  _366
REMARK  150  A    between atoms: _366  and  _367
REMARK  151  A    between atoms: _371  and  _372
REMARK  152  A    between atoms: _377  and  _379
REMARK  153  A    between atoms: _379  and  _380
REMARK  154  A    between atoms: _379  and  _382
REMARK  155  A    between atoms: _382  and  _383
REMARK  156  A    between atoms: _388  and  _389
REMARK  157  A    between atoms: _391  and  _393
REMARK  158  A    between atoms: _393  and  _394
REMARK  159  A    between atoms: _393  and  _396
REMARK  160  A    between atoms: _396  and  _397
REMARK  161  A    between atoms: _407  and  _409
REMARK  162  A    between atoms: _409  and  _410
REMARK  163  A    between atoms: _409  and  _412
REMARK  164  A    between atoms: _412  and  _413
REMARK  165  A    between atoms: _419  and  _421
REMARK  166  A    between atoms: _421  and  _422
REMARK  167  A    between atoms: _421  and  _424
REMARK  168  A    between atoms: _424  and  _425
REMARK  169  A    between atoms: _428  and  _430
REMARK  170  A    between atoms: _430  and  _431
REMARK  171  A    between atoms: _430  and  _433
REMARK  172  A    between atoms: _433  and  _434
REMARK  173  A    between atoms: _444  and  _446
REMARK  174  A    between atoms: _446  and  _447
REMARK  175  A    between atoms: _446  and  _449
REMARK  176  A    between atoms: _449  and  _450
REMARK  177  A    between atoms: _450  and  _451
REMARK  178  A    between atoms: _453  and  _455
REMARK  179  A    between atoms: _455  and  _456
REMARK  180  A    between atoms: _455  and  _458
REMARK  181  A    between atoms: _458  and  _459
REMARK  182  A    between atoms: _464  and  _466
REMARK  183  A    between atoms: _466  and  _467
REMARK  184  A    between atoms: _470  and  _471
REMARK  185  A    between atoms: _476  and  _478
REMARK  186  A    between atoms: _478  and  _479
REMARK  187  A    between atoms: _478  and  _481
REMARK  188  A    between atoms: _481  and  _482
REMARK  189  A    between atoms: _492  and  _494
REMARK  190  A    between atoms: _494  and  _495
REMARK  191  A    between atoms: _499  and  _500
REMARK  192  A    between atoms: _505  and  _507
REMARK  193  A    between atoms: _507  and  _508
REMARK  194  A    between atoms: _507  and  _510
REMARK  195  A    between atoms: _510  and  _511
REMARK  196  A    between atoms: _511  and  _512
REMARK  197  A    between atoms: _517  and  _519
REMARK  198  A    between atoms: _519  and  _520
REMARK  199  A    between atoms: _522  and  _524
REMARK  200  A    between atoms: _524  and  _525
REMARK  201  A    between atoms: _527  and  _529
REMARK  202  A    between atoms: _529  and  _530
REMARK  203  A    between atoms: _529  and  _532
REMARK  204  A    between atoms: _532  and  _533
REMARK  205  A    between atoms: _543  and  _545
REMARK  206  A    between atoms: _545  and  _546
REMARK  207  A    between atoms: _545  and  _548
REMARK  208  A    between atoms: _548  and  _549
REMARK  209  A    between atoms: _552  and  _554
REMARK  210  A    between atoms: _554  and  _555
REMARK  211  A    between atoms: _554  and  _557
REMARK  212  A    between atoms: _557  and  _558
REMARK  213  A    between atoms: _561  and  _563
REMARK  214  A    between atoms: _563  and  _564
REMARK  215  A    between atoms: _563  and  _566
REMARK  216  A    between atoms: _566  and  _567
REMARK  217  A    between atoms: _567  and  _568
REMARK  218  A    between atoms: _568  and  _569
REMARK  219  A    between atoms: _578  and  _580
REMARK  220  A    between atoms: _580  and  _581
REMARK  221  A    between atoms: _580  and  _583
REMARK  222  A    between atoms: _583  and  _584
REMARK  223  A    between atoms: _594  and  _596
REMARK  224  A    between atoms: _596  and  _597
REMARK  225  A    between atoms: _600  and  _602
REMARK  226  A    between atoms: _602  and  _603
REMARK  227  A    between atoms: _602  and  _605
REMARK  228  A    between atoms: _605  and  _606
REMARK  229  A    between atoms: _606  and  _607
REMARK  230  A    between atoms: _610  and  _612
REMARK  231  A    between atoms: _612  and  _613
REMARK  232  A    between atoms: _615  and  _617
REMARK  233  A    between atoms: _617  and  _618
REMARK  234  A    between atoms: _617  and  _620
REMARK  235  A    between atoms: _620  and  _621
REMARK  236  A    between atoms: _626  and  _628
REMARK  237  A    between atoms: _628  and  _629
REMARK  238  A    between atoms: _632  and  _634
REMARK  239  A    between atoms: _634  and  _635
REMARK  240  A    between atoms: _634  and  _637
REMARK  241  A    between atoms: _637  and  _638
REMARK  242  A    between atoms: _641  and  _643
REMARK  243  A    between atoms: _643  and  _644
REMARK  244  A    between atoms: _643  and  _646
REMARK  245  A    between atoms: _646  and  _647
REMARK  246  A    between atoms: _653  and  _655
REMARK  247  A    between atoms: _655  and  _656
REMARK  248  A    between atoms: _655  and  _658
REMARK  249  A    between atoms: _658  and  _659
REMARK  250  A    between atoms: _659  and  _660
REMARK  251  A    between atoms: _663  and  _665
REMARK  252  A    between atoms: _665  and  _666
REMARK  253  A    between atoms: _665  and  _668
REMARK  254  A    between atoms: _668  and  _669
REMARK  255  A    between atoms: _669  and  _670
REMARK  256  A    between atoms: _670  and  _671
REMARK                            x       y       z     vdW  Elec       q    Type
REMARK                         _______ _______ _______ _____ _____    ______ ____
ROOT
ATOM      1  O   HOH     1     -11.309 -13.827  15.253  0.00  0.00    +0.000 OA
ENDROOT
TORSDOF 0
REMARK  Name = ../refined-set-2016/3k00/3k00_pocket.pdb
REMARK  256 active torsions:
REMARK  status: ('A' for Active; 'I' for Inactive)
REMARK    1  A    between atoms: _1  and  _3
REMARK    2  A    between atoms: _3  and  _4
REMARK    3  A    between atoms: _3  and  _6
REMARK    4  A    between atoms: _6  and  _7
REMARK    5  A    between atoms: _10  and  _12
REMARK    6  A    between atoms: _12  and  _13
REMARK    7  A    between atoms: _12  and  _15
REMARK    8  A    between atoms: _15  and  _16
REMARK    9  A    between atoms: _19  and  _21
REMARK   10  A    between atoms: _21  and  _22
REMARK   11  A    between atoms: _21  and  _24
REMARK   12  A    between atoms: _24  and  _25
REMARK   13  A    between atoms: _27  and  _29
REMARK   14  A    between atoms: _29  and  _30
REMARK   15  A    between atoms: _29  and  _32
REMARK   16  A    between atoms: _32  and  _33
REMARK   17  A    between atoms: _38  and  _40
REMARK   18  A    between atoms: _40  and  _41
REMARK   19  A    between atoms: _40  and  _43
REMARK   20  A    between atoms: _43  and  _44
REMARK   21  A    between atoms: _44  and  _45
REMARK   22  A    between atoms: _48  and  _50
REMARK   23  A    between atoms: _50  and  _51
REMARK   24  A    between atoms: _54  and  _56
REMARK   25  A    between atoms: _56  and  _57
REMARK   26  A    between atoms: _56  and  _59
REMARK   27  A    between atoms: _59  and  _60
REMARK   28  A    between atoms: _60  and  _61
REMARK   29  A    between atoms: _64  and  _66
REMARK   30  A    between atoms: _66  and  _67
REMARK   31  A    between atoms: _66  and  _69
REMARK   32  A    between atoms: _69  and  _70
REMARK   33  A    between atoms: _70  and  _71
REMARK   34  A    between atoms: _71  and  _72
REMARK   35  A    between atoms: _72  and  _73
REMARK   36  A    between atoms: _77  and  _79
REMARK   37  A    between atoms: _79  and  _80
REMARK   38  A    between atoms: _79  and  _82
REMARK   39  A    between atoms: _82  and  _83
REMARK   40  A    between atoms: _88  and  _89
REMARK   41  A    between atoms: _91  and  _93
REMARK   42  A    between atoms: _93  and  _94
REMARK   43  A    between atoms: _93  and  _96
REMARK   44  A    between atoms: _96  and  _97
REMARK   45  A    between atoms: _102  and  _104
REMARK   46  A    between atoms: _104  and  _105
REMARK   47  A    between atoms: _104  and  _107
REMARK   48  A    between atoms: _111  and  _112
REMARK   49  A    between atoms: _117  and  _119
REMARK   50  A    between atoms: _119  and  _120
REMARK   51  A    between atoms: _119  and  _122
REMARK   52  A    between atoms: _122  and  _123
REMARK   53  A    between atoms: _129  and  _131
REMARK   54  A    between atoms: _131  and  _132
REMARK   55  A    between atoms: _134  and  _136
REMARK   56  A    between atoms: _136  and  _137
REMARK   57  A    between atoms: _136  and  _139
REMARK   58  A    between atoms: _139  and  _140
REMARK   59  A    between atoms: _140  and  _141
REMARK   60  A    between atoms: _144  and  _146
REMARK   61  A    between atoms: _146  and  _147
REMARK   62  A    between atoms: _150  and  _152
REMARK   63  A    between atoms: _152  and  _153
REMARK   64  A    between atoms: _152  and  _155
REMARK   65  A    between atoms: _155  and  _156
REMARK   66  A    between atoms: _161  and  _163
REMARK   67  A    between atoms: _163  and  _164
REMARK   68  A    between atoms: _167  and  _169
REMARK   69  A    between atoms: _169  and  _170
REMARK   70  A    between atoms: _169  and  _172
REMARK   71  A    between atoms: _172  and  _173
REMARK   72  A    between atoms: _173  and  _174
REMARK   73  A    between atoms: _174  and  _175
REMARK   74  A    between atoms: _175  and  _176
REMARK   75  A    between atoms: _180  and  _182
REMARK   76  A    between atoms: _182  and  _183
REMARK   77  A    between atoms: _182  and  _185
REMARK   78  A    between atoms: _185  and  _186
REMARK   79  A    between atoms: _186  and  _187
REMARK   80  A    between atoms: _187  and  _188
REMARK   81  A    between atoms: _188  and  _189
REMARK   82  A    between atoms: _193  and  _195
REMARK   83  A    between atoms: _195  and  _196
REMARK   84  A    between atoms: _195  and  _198
REMARK   85  A    between atoms: _198  and  _199
REMARK   86  A    between atoms: _199  and  _200
REMARK   87  A    between atoms: _200  and  _201
REMARK   88  A    between atoms: _210  and  _212
REMARK   89  A    between atoms: _212  and  _213
REMARK   90  A    between atoms: _212  and  _215
REMARK   91  A    between atoms: _215  and  _216
REMARK   92  A    between atoms: _216  and  _217
REMARK   93  A    between atoms: _220  and  _222
REMARK   94  A    between atoms: _222  and  _223
REMARK   95  A    between atoms: _222  and  _225
REMARK   96  A    between atoms: _228  and  _230
REMARK   97  A    between atoms: _230  and  _231
REMARK   98  A    between atoms: _234  and  _236
REMARK   99  A    between atoms: _236  and  _237
REMARK  100  A    between atoms: _236  and  _239
REMARK  101  A    between atoms: _239  and  _240
REMARK  102  A    between atoms: _250  and  _252
REMARK  103  A    between atoms: _252  and  _253
REMARK  104  A    between atoms: _252  and  _255
REMARK  105  A    between atoms: _258  and  _260
REMARK  106  A    between atoms: _260  and  _261
REMARK  107  A    between atoms: _260  and  _263
REMARK  108  A    between atoms: _263  and  _264
REMARK  109  A    between atoms: _267  and  _269
REMARK  110  A    between atoms: _269  and  _270
REMARK  111  A    between atoms: _269  and  _272
REMARK  112  A    between atoms: _272  and  _273
REMARK  113  A    between atoms: _279  and  _281
REMARK  114  A    between atoms: _281  and  _282
REMARK  115  A    between atoms: _281  and  _284
REMARK  116  A    between atoms: _284  and  _285
REMARK  117  A    between atoms: _285  and  _286
REMARK  118  A    between atoms: _291  and  _293
REMARK  119  A    between atoms: _293  and  _294
REMARK  120  A    between atoms: _293  and  _296
REMARK  121  A    between atoms: _299  and  _301
REMARK  122  A    between atoms: _301  and  _302
REMARK  123  A    between atoms: _301  and  _304
REMARK  124  A    between atoms: _304  and  _305
REMARK  125  A    between atoms: _308  and  _310
REMARK  126  A    between atoms: _310  and  _311
REMARK  127  A    between atoms: _310  and  _313
REMARK  128  A    between atoms: _313  and  _314
REMARK  129  A    between atoms: _317  and  _319
REMARK  130  A    between atoms: _319  and  _320
REMARK  131  A    between atoms: _319  and  _322
REMARK  132  A    between atoms: _322  and  _323
REMARK  133  A    between atoms: _326  and  _328
REMARK  134  A    between atoms: _328  and  _329
REMARK  135  A    between atoms: _328  and  _331
REMARK  136  A    between atoms: _331  and  _332
REMARK  137  A    between atoms: _335  and  _337
REMARK  138  A    between atoms: _337  and  _338
REMARK  139  A    between atoms: _337  and  _340
REMARK  140  A    between atoms: _340  and  _341
REMARK  141  A    between atoms: _341  and  _342
REMARK  142  A    between atoms: _342  and  _343
REMARK  143  A    between atoms: _352  and  _354
REMARK  144  A    between atoms: _354  and  _355
REMARK  145  A    between atoms: _354  and  _357
REMARK  146  A    between atoms: _357  and  _358
REMARK  147  A    between atoms: _361  and  _363
REMARK  148  A    between atoms: _363  and  _364
REMARK  149  A    between atoms: _363  and  _366
REMARK  150  A    between atoms: _366  and  _367
REMARK  151  A    between atoms: _371  and  _372
REMARK  152  A    between atoms: _377  and  _379
REMARK  153  A    between atoms: _379  and  _380
REMARK  154  A    between atoms: _379  and  _382
REMARK  155  A    between atoms: _382  and  _383
REMARK  156  A    between atoms: _388  and  _389
REMARK  157  A    between atoms: _391  and  _393
REMARK  158  A    between atoms: _393  and  _394
REMARK  159  A    between atoms: _393  and  _396
REMARK  160  A    between atoms: _396  and  _397
REMARK  161  A    between atoms: _407  and  _409
REMARK  162  A    between atoms: _409  and  _410
REMARK  163  A    between atoms: _409  and  _412
REMARK  164  A    between atoms: _412  and  _413
REMARK  165  A    between atoms: _419  and  _421
REMARK  166  A    between atoms: _421  and  _422
REMARK  167  A    between atoms: _421  and  _424
REMARK  168  A    between atoms: _424  and  _425
REMARK  169  A    between atoms: _428  and  _430
REMARK  170  A    between atoms: _430  and  _431
REMARK  171  A    between atoms: _430  and  _433
REMARK  172  A    between atoms: _433  and  _434
REMARK  173  A    between atoms: _444  and  _446
REMARK  174  A    between atoms: _446  and  _447
REMARK  175  A    between atoms: _446  and  _449
REMARK  176  A    between atoms: _449  and  _450
REMARK  177  A    between atoms: _450  and  _451
REMARK  178  A    between atoms: _453  and  _455
REMARK  179  A    between atoms: _455  and  _456
REMARK  180  A    between atoms: _455  and  _458
REMARK  181  A    between atoms: _458  and  _459
REMARK  182  A    between atoms: _464  and  _466
REMARK  183  A    between atoms: _466  and  _467
REMARK  184  A    between atoms: _470  and  _471
REMARK  185  A    between atoms: _476  and  _478
REMARK  186  A    between atoms: _478  and  _479
REMARK  187  A    between atoms: _478  and  _481
REMARK  188  A    between atoms: _481  and  _482
REMARK  189  A    between atoms: _492  and  _494
REMARK  190  A    between atoms: _494  and  _495
REMARK  191  A    between atoms: _499  and  _500
REMARK  192  A    between atoms: _505  and  _507
REMARK  193  A    between atoms: _507  and  _508
REMARK  194  A    between atoms: _507  and  _510
REMARK  195  A    between atoms: _510  and  _511
REMARK  196  A    between atoms: _511  and  _512
REMARK  197  A    between atoms: _517  and  _519
REMARK  198  A    between atoms: _519  and  _520
REMARK  199  A    between atoms: _522  and  _524
REMARK  200  A    between atoms: _524  and  _525
REMARK  201  A    between atoms: _527  and  _529
REMARK  202  A    between atoms: _529  and  _530
REMARK  203  A    between atoms: _529  and  _532
REMARK  204  A    between atoms: _532  and  _533
REMARK  205  A    between atoms: _543  and  _545
REMARK  206  A    between atoms: _545  and  _546
REMARK  207  A    between atoms: _545  and  _548
REMARK  208  A    between atoms: _548  and  _549
REMARK  209  A    between atoms: _552  and  _554
REMARK  210  A    between atoms: _554  and  _555
REMARK  211  A    between atoms: _554  and  _557
REMARK  212  A    between atoms: _557  and  _558
REMARK  213  A    between atoms: _561  and  _563
REMARK  214  A    between atoms: _563  and  _564
REMARK  215  A    between atoms: _563  and  _566
REMARK  216  A    between atoms: _566  and  _567
REMARK  217  A    between atoms: _567  and  _568
REMARK  218  A    between atoms: _568  and  _569
REMARK  219  A    between atoms: _578  and  _580
REMARK  220  A    between atoms: _580  and  _581
REMARK  221  A    between atoms: _580  and  _583
REMARK  222  A    between atoms: _583  and  _584
REMARK  223  A    between atoms: _594  and  _596
REMARK  224  A    between atoms: _596  and  _597
REMARK  225  A    between atoms: _600  and  _602
REMARK  226  A    between atoms: _602  and  _603
REMARK  227  A    between atoms: _602  and  _605
REMARK  228  A    between atoms: _605  and  _606
REMARK  229  A    between atoms: _606  and  _607
REMARK  230  A    between atoms: _610  and  _612
REMARK  231  A    between atoms: _612  and  _613
REMARK  232  A    between atoms: _615  and  _617
REMARK  233  A    between atoms: _617  and  _618
REMARK  234  A    between atoms: _617  and  _620
REMARK  235  A    between atoms: _620  and  _621
REMARK  236  A    between atoms: _626  and  _628
REMARK  237  A    between atoms: _628  and  _629
REMARK  238  A    between atoms: _632  and  _634
REMARK  239  A    between atoms: _634  and  _635
REMARK  240  A    between atoms: _634  and  _637
REMARK  241  A    between atoms: _637  and  _638
REMARK  242  A    between atoms: _641  and  _643
REMARK  243  A    between atoms: _643  and  _644
REMARK  244  A    between atoms: _643  and  _646
REMARK  245  A    between atoms: _646  and  _647
REMARK  246  A    between atoms: _653  and  _655
REMARK  247  A    between atoms: _655  and  _656
REMARK  248  A    between atoms: _655  and  _658
REMARK  249  A    between atoms: _658  and  _659
REMARK  250  A    between atoms: _659  and  _660
REMARK  251  A    between atoms: _663  and  _665
REMARK  252  A    between atoms: _665  and  _666
REMARK  253  A    between atoms: _665  and  _668
REMARK  254  A    between atoms: _668  and  _669
REMARK  255  A    between atoms: _669  and  _670
REMARK  256  A    between atoms: _670  and  _671
REMARK                            x       y       z     vdW  Elec       q    Type
REMARK                         _______ _______ _______ _____ _____    ______ ____
ROOT
ATOM      1  O   HOH     1      -4.300 -19.901  19.290  0.00  0.00    +0.000 OA
ENDROOT
TORSDOF 0
REMARK  Name = ../refined-set-2016/3k00/3k00_pocket.pdb
REMARK  256 active torsions:
REMARK  status: ('A' for Active; 'I' for Inactive)
REMARK    1  A    between atoms: _1  and  _3
REMARK    2  A    between atoms: _3  and  _4
REMARK    3  A    between atoms: _3  and  _6
REMARK    4  A    between atoms: _6  and  _7
REMARK    5  A    between atoms: _10  and  _12
REMARK    6  A    between atoms: _12  and  _13
REMARK    7  A    between atoms: _12  and  _15
REMARK    8  A    between atoms: _15  and  _16
REMARK    9  A    between atoms: _19  and  _21
REMARK   10  A    between atoms: _21  and  _22
REMARK   11  A    between atoms: _21  and  _24
REMARK   12  A    between atoms: _24  and  _25
REMARK   13  A    between atoms: _27  and  _29
REMARK   14  A    between atoms: _29  and  _30
REMARK   15  A    between atoms: _29  and  _32
REMARK   16  A    between atoms: _32  and  _33
REMARK   17  A    between atoms: _38  and  _40
REMARK   18  A    between atoms: _40  and  _41
REMARK   19  A    between atoms: _40  and  _43
REMARK   20  A    between atoms: _43  and  _44
REMARK   21  A    between atoms: _44  and  _45
REMARK   22  A    between atoms: _48  and  _50
REMARK   23  A    between atoms: _50  and  _51
REMARK   24  A    between atoms: _54  and  _56
REMARK   25  A    between atoms: _56  and  _57
REMARK   26  A    between atoms: _56  and  _59
REMARK   27  A    between atoms: _59  and  _60
REMARK   28  A    between atoms: _60  and  _61
REMARK   29  A    between atoms: _64  and  _66
REMARK   30  A    between atoms: _66  and  _67
REMARK   31  A    between atoms: _66  and  _69
REMARK   32  A    between atoms: _69  and  _70
REMARK   33  A    between atoms: _70  and  _71
REMARK   34  A    between atoms: _71  and  _72
REMARK   35  A    between atoms: _72  and  _73
REMARK   36  A    between atoms: _77  and  _79
REMARK   37  A    between atoms: _79  and  _80
REMARK   38  A    between atoms: _79  and  _82
REMARK   39  A    between atoms: _82  and  _83
REMARK   40  A    between atoms: _88  and  _89
REMARK   41  A    between atoms: _91  and  _93
REMARK   42  A    between atoms: _93  and  _94
REMARK   43  A    between atoms: _93  and  _96
REMARK   44  A    between atoms: _96  and  _97
REMARK   45  A    between atoms: _102  and  _104
REMARK   46  A    between atoms: _104  and  _105
REMARK   47  A    between atoms: _104  and  _107
REMARK   48  A    between atoms: _111  and  _112
REMARK   49  A    between atoms: _117  and  _119
REMARK   50  A    between atoms: _119  and  _120
REMARK   51  A    between atoms: _119  and  _122
REMARK   52  A    between atoms: _122  and  _123
REMARK   53  A    between atoms: _129  and  _131
REMARK   54  A    between atoms: _131  and  _132
REMARK   55  A    between atoms: _134  and  _136
REMARK   56  A    between atoms: _136  and  _137
REMARK   57  A    between atoms: _136  and  _139
REMARK   58  A    between atoms: _139  and  _140
REMARK   59  A    between atoms: _140  and  _141
REMARK   60  A    between atoms: _144  and  _146
REMARK   61  A    between atoms: _146  and  _147
REMARK   62  A    between atoms: _150  and  _152
REMARK   63  A    between atoms: _152  and  _153
REMARK   64  A    between atoms: _152  and  _155
REMARK   65  A    between atoms: _155  and  _156
REMARK   66  A    between atoms: _161  and  _163
REMARK   67  A    between atoms: _163  and  _164
REMARK   68  A    between atoms: _167  and  _169
REMARK   69  A    between atoms: _169  and  _170
REMARK   70  A    between atoms: _169  and  _172
REMARK   71  A    between atoms: _172  and  _173
REMARK   72  A    between atoms: _173  and  _174
REMARK   73  A    between atoms: _174  and  _175
REMARK   74  A    between atoms: _175  and  _176
REMARK   75  A    between atoms: _180  and  _182
REMARK   76  A    between atoms: _182  and  _183
REMARK   77  A    between atoms: _182  and  _185
REMARK   78  A    between atoms: _185  and  _186
REMARK   79  A    between atoms: _186  and  _187
REMARK   80  A    between atoms: _187  and  _188
REMARK   81  A    between atoms: _188  and  _189
REMARK   82  A    between atoms: _193  and  _195
REMARK   83  A    between atoms: _195  and  _196
REMARK   84  A    between atoms: _195  and  _198
REMARK   85  A    between atoms: _198  and  _199
REMARK   86  A    between atoms: _199  and  _200
REMARK   87  A    between atoms: _200  and  _201
REMARK   88  A    between atoms: _210  and  _212
REMARK   89  A    between atoms: _212  and  _213
REMARK   90  A    between atoms: _212  and  _215
REMARK   91  A    between atoms: _215  and  _216
REMARK   92  A    between atoms: _216  and  _217
REMARK   93  A    between atoms: _220  and  _222
REMARK   94  A    between atoms: _222  and  _223
REMARK   95  A    between atoms: _222  and  _225
REMARK   96  A    between atoms: _228  and  _230
REMARK   97  A    between atoms: _230  and  _231
REMARK   98  A    between atoms: _234  and  _236
REMARK   99  A    between atoms: _236  and  _237
REMARK  100  A    between atoms: _236  and  _239
REMARK  101  A    between atoms: _239  and  _240
REMARK  102  A    between atoms: _250  and  _252
REMARK  103  A    between atoms: _252  and  _253
REMARK  104  A    between atoms: _252  and  _255
REMARK  105  A    between atoms: _258  and  _260
REMARK  106  A    between atoms: _260  and  _261
REMARK  107  A    between atoms: _260  and  _263
REMARK  108  A    between atoms: _263  and  _264
REMARK  109  A    between atoms: _267  and  _269
REMARK  110  A    between atoms: _269  and  _270
REMARK  111  A    between atoms: _269  and  _272
REMARK  112  A    between atoms: _272  and  _273
REMARK  113  A    between atoms: _279  and  _281
REMARK  114  A    between atoms: _281  and  _282
REMARK  115  A    between atoms: _281  and  _284
REMARK  116  A    between atoms: _284  and  _285
REMARK  117  A    between atoms: _285  and  _286
REMARK  118  A    between atoms: _291  and  _293
REMARK  119  A    between atoms: _293  and  _294
REMARK  120  A    between atoms: _293  and  _296
REMARK  121  A    between atoms: _299  and  _301
REMARK  122  A    between atoms: _301  and  _302
REMARK  123  A    between atoms: _301  and  _304
REMARK  124  A    between atoms: _304  and  _305
REMARK  125  A    between atoms: _308  and  _310
REMARK  126  A    between atoms: _310  and  _311
REMARK  127  A    between atoms: _310  and  _313
REMARK  128  A    between atoms: _313  and  _314
REMARK  129  A    between atoms: _317  and  _319
REMARK  130  A    between atoms: _319  and  _320
REMARK  131  A    between atoms: _319  and  _322
REMARK  132  A    between atoms: _322  and  _323
REMARK  133  A    between atoms: _326  and  _328
REMARK  134  A    between atoms: _328  and  _329
REMARK  135  A    between atoms: _328  and  _331
REMARK  136  A    between atoms: _331  and  _332
REMARK  137  A    between atoms: _335  and  _337
REMARK  138  A    between atoms: _337  and  _338
REMARK  139  A    between atoms: _337  and  _340
REMARK  140  A    between atoms: _340  and  _341
REMARK  141  A    between atoms: _341  and  _342
REMARK  142  A    between atoms: _342  and  _343
REMARK  143  A    between atoms: _352  and  _354
REMARK  144  A    between atoms: _354  and  _355
REMARK  145  A    between atoms: _354  and  _357
REMARK  146  A    between atoms: _357  and  _358
REMARK  147  A    between atoms: _361  and  _363
REMARK  148  A    between atoms: _363  and  _364
REMARK  149  A    between atoms: _363  and  _366
REMARK  150  A    between atoms: _366  and  _367
REMARK  151  A    between atoms: _371  and  _372
REMARK  152  A    between atoms: _377  and  _379
REMARK  153  A    between atoms: _379  and  _380
REMARK  154  A    between atoms: _379  and  _382
REMARK  155  A    between atoms: _382  and  _383
REMARK  156  A    between atoms: _388  and  _389
REMARK  157  A    between atoms: _391  and  _393
REMARK  158  A    between atoms: _393  and  _394
REMARK  159  A    between atoms: _393  and  _396
REMARK  160  A    between atoms: _396  and  _397
REMARK  161  A    between atoms: _407  and  _409
REMARK  162  A    between atoms: _409  and  _410
REMARK  163  A    between atoms: _409  and  _412
REMARK  164  A    between atoms: _412  and  _413
REMARK  165  A    between atoms: _419  and  _421
REMARK  166  A    between atoms: _421  and  _422
REMARK  167  A    between atoms: _421  and  _424
REMARK  168  A    between atoms: _424  and  _425
REMARK  169  A    between atoms: _428  and  _430
REMARK  170  A    between atoms: _430  and  _431
REMARK  171  A    between atoms: _430  and  _433
REMARK  172  A    between atoms: _433  and  _434
REMARK  173  A    between atoms: _444  and  _446
REMARK  174  A    between atoms: _446  and  _447
REMARK  175  A    between atoms: _446  and  _449
REMARK  176  A    between atoms: _449  and  _450
REMARK  177  A    between atoms: _450  and  _451
REMARK  178  A    between atoms: _453  and  _455
REMARK  179  A    between atoms: _455  and  _456
REMARK  180  A    between atoms: _455  and  _458
REMARK  181  A    between atoms: _458  and  _459
REMARK  182  A    between atoms: _464  and  _466
REMARK  183  A    between atoms: _466  and  _467
REMARK  184  A    between atoms: _470  and  _471
REMARK  185  A    between atoms: _476  and  _478
REMARK  186  A    between atoms: _478  and  _479
REMARK  187  A    between atoms: _478  and  _481
REMARK  188  A    between atoms: _481  and  _482
REMARK  189  A    between atoms: _492  and  _494
REMARK  190  A    between atoms: _494  and  _495
REMARK  191  A    between atoms: _499  and  _500
REMARK  192  A    between atoms: _505  and  _507
REMARK  193  A    between atoms: _507  and  _508
REMARK  194  A    between atoms: _507  and  _510
REMARK  195  A    between atoms: _510  and  _511
REMARK  196  A    between atoms: _511  and  _512
REMARK  197  A    between atoms: _517  and  _519
REMARK  198  A    between atoms: _519  and  _520
REMARK  199  A    between atoms: _522  and  _524
REMARK  200  A    between atoms: _524  and  _525
REMARK  201  A    between atoms: _527  and  _529
REMARK  202  A    between atoms: _529  and  _530
REMARK  203  A    between atoms: _529  and  _532
REMARK  204  A    between atoms: _532  and  _533
REMARK  205  A    between atoms: _543  and  _545
REMARK  206  A    between atoms: _545  and  _546
REMARK  207  A    between atoms: _545  and  _548
REMARK  208  A    between atoms: _548  and  _549
REMARK  209  A    between atoms: _552  and  _554
REMARK  210  A    between atoms: _554  and  _555
REMARK  211  A    between atoms: _554  and  _557
REMARK  212  A    between atoms: _557  and  _558
REMARK  213  A    between atoms: _561  and  _563
REMARK  214  A    between atoms: _563  and  _564
REMARK  215  A    between atoms: _563  and  _566
REMARK  216  A    between atoms: _566  and  _567
REMARK  217  A    between atoms: _567  and  _568
REMARK  218  A    between atoms: _568  and  _569
REMARK  219  A    between atoms: _578  and  _580
REMARK  220  A    between atoms: _580  and  _581
REMARK  221  A    between atoms: _580  and  _583
REMARK  222  A    between atoms: _583  and  _584
REMARK  223  A    between atoms: _594  and  _596
REMARK  224  A    between atoms: _596  and  _597
REMARK  225  A    between atoms: _600  and  _602
REMARK  226  A    between atoms: _602  and  _603
REMARK  227  A    between atoms: _602  and  _605
REMARK  228  A    between atoms: _605  and  _606
REMARK  229  A    between atoms: _606  and  _607
REMARK  230  A    between atoms: _610  and  _612
REMARK  231  A    between atoms: _612  and  _613
REMARK  232  A    between atoms: _615  and  _617
REMARK  233  A    between atoms: _617  and  _618
REMARK  234  A    between atoms: _617  and  _620
REMARK  235  A    between atoms: _620  and  _621
REMARK  236  A    between atoms: _626  and  _628
REMARK  237  A    between atoms: _628  and  _629
REMARK  238  A    between atoms: _632  and  _634
REMARK  239  A    between atoms: _634  and  _635
REMARK  240  A    between atoms: _634  and  _637
REMARK  241  A    between atoms: _637  and  _638
REMARK  242  A    between atoms: _641  and  _643
REMARK  243  A    between atoms: _643  and  _644
REMARK  244  A    between atoms: _643  and  _646
REMARK  245  A    between atoms: _646  and  _647
REMARK  246  A    between atoms: _653  and  _655
REMARK  247  A    between atoms: _655  and  _656
REMARK  248  A    between atoms: _655  and  _658
REMARK  249  A    between atoms: _658  and  _659
REMARK  250  A    between atoms: _659  and  _660
REMARK  251  A    between atoms: _663  and  _665
REMARK  252  A    between atoms: _665  and  _666
REMARK  253  A    between atoms: _665  and  _668
REMARK  254  A    between atoms: _668  and  _669
REMARK  255  A    between atoms: _669  and  _670
REMARK  256  A    between atoms: _670  and  _671
REMARK                            x       y       z     vdW  Elec       q    Type
REMARK                         _______ _______ _______ _____ _____    ______ ____
ROOT
ATOM      1  O   HOH     1     -12.876  -9.167  20.628  0.00  0.00    +0.000 OA
ENDROOT
TORSDOF 0
REMARK  Name = ../refined-set-2016/3k00/3k00_pocket.pdb
REMARK  256 active torsions:
REMARK  status: ('A' for Active; 'I' for Inactive)
REMARK    1  A    between atoms: _1  and  _3
REMARK    2  A    between atoms: _3  and  _4
REMARK    3  A    between atoms: _3  and  _6
REMARK    4  A    between atoms: _6  and  _7
REMARK    5  A    between atoms: _10  and  _12
REMARK    6  A    between atoms: _12  and  _13
REMARK    7  A    between atoms: _12  and  _15
REMARK    8  A    between atoms: _15  and  _16
REMARK    9  A    between atoms: _19  and  _21
REMARK   10  A    between atoms: _21  and  _22
REMARK   11  A    between atoms: _21  and  _24
REMARK   12  A    between atoms: _24  and  _25
REMARK   13  A    between atoms: _27  and  _29
REMARK   14  A    between atoms: _29  and  _30
REMARK   15  A    between atoms: _29  and  _32
REMARK   16  A    between atoms: _32  and  _33
REMARK   17  A    between atoms: _38  and  _40
REMARK   18  A    between atoms: _40  and  _41
REMARK   19  A    between atoms: _40  and  _43
REMARK   20  A    between atoms: _43  and  _44
REMARK   21  A    between atoms: _44  and  _45
REMARK   22  A    between atoms: _48  and  _50
REMARK   23  A    between atoms: _50  and  _51
REMARK   24  A    between atoms: _54  and  _56
REMARK   25  A    between atoms: _56  and  _57
REMARK   26  A    between atoms: _56  and  _59
REMARK   27  A    between atoms: _59  and  _60
REMARK   28  A    between atoms: _60  and  _61
REMARK   29  A    between atoms: _64  and  _66
REMARK   30  A    between atoms: _66  and  _67
REMARK   31  A    between atoms: _66  and  _69
REMARK   32  A    between atoms: _69  and  _70
REMARK   33  A    between atoms: _70  and  _71
REMARK   34  A    between atoms: _71  and  _72
REMARK   35  A    between atoms: _72  and  _73
REMARK   36  A    between atoms: _77  and  _79
REMARK   37  A    between atoms: _79  and  _80
REMARK   38  A    between atoms: _79  and  _82
REMARK   39  A    between atoms: _82  and  _83
REMARK   40  A    between atoms: _88  and  _89
REMARK   41  A    between atoms: _91  and  _93
REMARK   42  A    between atoms: _93  and  _94
REMARK   43  A    between atoms: _93  and  _96
REMARK   44  A    between atoms: _96  and  _97
REMARK   45  A    between atoms: _102  and  _104
REMARK   46  A    between atoms: _104  and  _105
REMARK   47  A    between atoms: _104  and  _107
REMARK   48  A    between atoms: _111  and  _112
REMARK   49  A    between atoms: _117  and  _119
REMARK   50  A    between atoms: _119  and  _120
REMARK   51  A    between atoms: _119  and  _122
REMARK   52  A    between atoms: _122  and  _123
REMARK   53  A    between atoms: _129  and  _131
REMARK   54  A    between atoms: _131  and  _132
REMARK   55  A    between atoms: _134  and  _136
REMARK   56  A    between atoms: _136  and  _137
REMARK   57  A    between atoms: _136  and  _139
REMARK   58  A    between atoms: _139  and  _140
REMARK   59  A    between atoms: _140  and  _141
REMARK   60  A    between atoms: _144  and  _146
REMARK   61  A    between atoms: _146  and  _147
REMARK   62  A    between atoms: _150  and  _152
REMARK   63  A    between atoms: _152  and  _153
REMARK   64  A    between atoms: _152  and  _155
REMARK   65  A    between atoms: _155  and  _156
REMARK   66  A    between atoms: _161  and  _163
REMARK   67  A    between atoms: _163  and  _164
REMARK   68  A    between atoms: _167  and  _169
REMARK   69  A    between atoms: _169  and  _170
REMARK   70  A    between atoms: _169  and  _172
REMARK   71  A    between atoms: _172  and  _173
REMARK   72  A    between atoms: _173  and  _174
REMARK   73  A    between atoms: _174  and  _175
REMARK   74  A    between atoms: _175  and  _176
REMARK   75  A    between atoms: _180  and  _182
REMARK   76  A    between atoms: _182  and  _183
REMARK   77  A    between atoms: _182  and  _185
REMARK   78  A    between atoms: _185  and  _186
REMARK   79  A    between atoms: _186  and  _187
REMARK   80  A    between atoms: _187  and  _188
REMARK   81  A    between atoms: _188  and  _189
REMARK   82  A    between atoms: _193  and  _195
REMARK   83  A    between atoms: _195  and  _196
REMARK   84  A    between atoms: _195  and  _198
REMARK   85  A    between atoms: _198  and  _199
REMARK   86  A    between atoms: _199  and  _200
REMARK   87  A    between atoms: _200  and  _201
REMARK   88  A    between atoms: _210  and  _212
REMARK   89  A    between atoms: _212  and  _213
REMARK   90  A    between atoms: _212  and  _215
REMARK   91  A    between atoms: _215  and  _216
REMARK   92  A    between atoms: _216  and  _217
REMARK   93  A    between atoms: _220  and  _222
REMARK   94  A    between atoms: _222  and  _223
REMARK   95  A    between atoms: _222  and  _225
REMARK   96  A    between atoms: _228  and  _230
REMARK   97  A    between atoms: _230  and  _231
REMARK   98  A    between atoms: _234  and  _236
REMARK   99  A    between atoms: _236  and  _237
REMARK  100  A    between atoms: _236  and  _239
REMARK  101  A    between atoms: _239  and  _240
REMARK  102  A    between atoms: _250  and  _252
REMARK  103  A    between atoms: _252  and  _253
REMARK  104  A    between atoms: _252  and  _255
REMARK  105  A    between atoms: _258  and  _260
REMARK  106  A    between atoms: _260  and  _261
REMARK  107  A    between atoms: _260  and  _263
REMARK  108  A    between atoms: _263  and  _264
REMARK  109  A    between atoms: _267  and  _269
REMARK  110  A    between atoms: _269  and  _270
REMARK  111  A    between atoms: _269  and  _272
REMARK  112  A    between atoms: _272  and  _273
REMARK  113  A    between atoms: _279  and  _281
REMARK  114  A    between atoms: _281  and  _282
REMARK  115  A    between atoms: _281  and  _284
REMARK  116  A    between atoms: _284  and  _285
REMARK  117  A    between atoms: _285  and  _286
REMARK  118  A    between atoms: _291  and  _293
REMARK  119  A    between atoms: _293  and  _294
REMARK  120  A    between atoms: _293  and  _296
REMARK  121  A    between atoms: _299  and  _301
REMARK  122  A    between atoms: _301  and  _302
REMARK  123  A    between atoms: _301  and  _304
REMARK  124  A    between atoms: _304  and  _305
REMARK  125  A    between atoms: _308  and  _310
REMARK  126  A    between atoms: _310  and  _311
REMARK  127  A    between atoms: _310  and  _313
REMARK  128  A    between atoms: _313  and  _314
REMARK  129  A    between atoms: _317  and  _319
REMARK  130  A    between atoms: _319  and  _320
REMARK  131  A    between atoms: _319  and  _322
REMARK  132  A    between atoms: _322  and  _323
REMARK  133  A    between atoms: _326  and  _328
REMARK  134  A    between atoms: _328  and  _329
REMARK  135  A    between atoms: _328  and  _331
REMARK  136  A    between atoms: _331  and  _332
REMARK  137  A    between atoms: _335  and  _337
REMARK  138  A    between atoms: _337  and  _338
REMARK  139  A    between atoms: _337  and  _340
REMARK  140  A    between atoms: _340  and  _341
REMARK  141  A    between atoms: _341  and  _342
REMARK  142  A    between atoms: _342  and  _343
REMARK  143  A    between atoms: _352  and  _354
REMARK  144  A    between atoms: _354  and  _355
REMARK  145  A    between atoms: _354  and  _357
REMARK  146  A    between atoms: _357  and  _358
REMARK  147  A    between atoms: _361  and  _363
REMARK  148  A    between atoms: _363  and  _364
REMARK  149  A    between atoms: _363  and  _366
REMARK  150  A    between atoms: _366  and  _367
REMARK  151  A    between atoms: _371  and  _372
REMARK  152  A    between atoms: _377  and  _379
REMARK  153  A    between atoms: _379  and  _380
REMARK  154  A    between atoms: _379  and  _382
REMARK  155  A    between atoms: _382  and  _383
REMARK  156  A    between atoms: _388  and  _389
REMARK  157  A    between atoms: _391  and  _393
REMARK  158  A    between atoms: _393  and  _394
REMARK  159  A    between atoms: _393  and  _396
REMARK  160  A    between atoms: _396  and  _397
REMARK  161  A    between atoms: _407  and  _409
REMARK  162  A    between atoms: _409  and  _410
REMARK  163  A    between atoms: _409  and  _412
REMARK  164  A    between atoms: _412  and  _413
REMARK  165  A    between atoms: _419  and  _421
REMARK  166  A    between atoms: _421  and  _422
REMARK  167  A    between atoms: _421  and  _424
REMARK  168  A    between atoms: _424  and  _425
REMARK  169  A    between atoms: _428  and  _430
REMARK  170  A    between atoms: _430  and  _431
REMARK  171  A    between atoms: _430  and  _433
REMARK  172  A    between atoms: _433  and  _434
REMARK  173  A    between atoms: _444  and  _446
REMARK  174  A    between atoms: _446  and  _447
REMARK  175  A    between atoms: _446  and  _449
REMARK  176  A    between atoms: _449  and  _450
REMARK  177  A    between atoms: _450  and  _451
REMARK  178  A    between atoms: _453  and  _455
REMARK  179  A    between atoms: _455  and  _456
REMARK  180  A    between atoms: _455  and  _458
REMARK  181  A    between atoms: _458  and  _459
REMARK  182  A    between atoms: _464  and  _466
REMARK  183  A    between atoms: _466  and  _467
REMARK  184  A    between atoms: _470  and  _471
REMARK  185  A    between atoms: _476  and  _478
REMARK  186  A    between atoms: _478  and  _479
REMARK  187  A    between atoms: _478  and  _481
REMARK  188  A    between atoms: _481  and  _482
REMARK  189  A    between atoms: _492  and  _494
REMARK  190  A    between atoms: _494  and  _495
REMARK  191  A    between atoms: _499  and  _500
REMARK  192  A    between atoms: _505  and  _507
REMARK  193  A    between atoms: _507  and  _508
REMARK  194  A    between atoms: _507  and  _510
REMARK  195  A    between atoms: _510  and  _511
REMARK  196  A    between atoms: _511  and  _512
REMARK  197  A    between atoms: _517  and  _519
REMARK  198  A    between atoms: _519  and  _520
REMARK  199  A    between atoms: _522  and  _524
REMARK  200  A    between atoms: _524  and  _525
REMARK  201  A    between atoms: _527  and  _529
REMARK  202  A    between atoms: _529  and  _530
REMARK  203  A    between atoms: _529  and  _532
REMARK  204  A    between atoms: _532  and  _533
REMARK  205  A    between atoms: _543  and  _545
REMARK  206  A    between atoms: _545  and  _546
REMARK  207  A    between atoms: _545  and  _548
REMARK  208  A    between atoms: _548  and  _549
REMARK  209  A    between atoms: _552  and  _554
REMARK  210  A    between atoms: _554  and  _555
REMARK  211  A    between atoms: _554  and  _557
REMARK  212  A    between atoms: _557  and  _558
REMARK  213  A    between atoms: _561  and  _563
REMARK  214  A    between atoms: _563  and  _564
REMARK  215  A    between atoms: _563  and  _566
REMARK  216  A    between atoms: _566  and  _567
REMARK  217  A    between atoms: _567  and  _568
REMARK  218  A    between atoms: _568  and  _569
REMARK  219  A    between atoms: _578  and  _580
REMARK  220  A    between atoms: _580  and  _581
REMARK  221  A    between atoms: _580  and  _583
REMARK  222  A    between atoms: _583  and  _584
REMARK  223  A    between atoms: _594  and  _596
REMARK  224  A    between atoms: _596  and  _597
REMARK  225  A    between atoms: _600  and  _602
REMARK  226  A    between atoms: _602  and  _603
REMARK  227  A    between atoms: _602  and  _605
REMARK  228  A    between atoms: _605  and  _606
REMARK  229  A    between atoms: _606  and  _607
REMARK  230  A    between atoms: _610  and  _612
REMARK  231  A    between atoms: _612  and  _613
REMARK  232  A    between atoms: _615  and  _617
REMARK  233  A    between atoms: _617  and  _618
REMARK  234  A    between atoms: _617  and  _620
REMARK  235  A    between atoms: _620  and  _621
REMARK  236  A    between atoms: _626  and  _628
REMARK  237  A    between atoms: _628  and  _629
REMARK  238  A    between atoms: _632  and  _634
REMARK  239  A    between atoms: _634  and  _635
REMARK  240  A    between atoms: _634  and  _637
REMARK  241  A    between atoms: _637  and  _638
REMARK  242  A    between atoms: _641  and  _643
REMARK  243  A    between atoms: _643  and  _644
REMARK  244  A    between atoms: _643  and  _646
REMARK  245  A    between atoms: _646  and  _647
REMARK  246  A    between atoms: _653  and  _655
REMARK  247  A    between atoms: _655  and  _656
REMARK  248  A    between atoms: _655  and  _658
REMARK  249  A    between atoms: _658  and  _659
REMARK  250  A    between atoms: _659  and  _660
REMARK  251  A    between atoms: _663  and  _665
REMARK  252  A    between atoms: _665  and  _666
REMARK  253  A    between atoms: _665  and  _668
REMARK  254  A    between atoms: _668  and  _669
REMARK  255  A    between atoms: _669  and  _670
REMARK  256  A    between atoms: _670  and  _671
REMARK                            x       y       z     vdW  Elec       q    Type
REMARK                         _______ _______ _______ _____ _____    ______ ____
ROOT
ATOM      1  O   HOH     1     -12.931  -4.087  13.594  0.00  0.00    +0.000 OA
ENDROOT
TORSDOF 0
REMARK  Name = ../refined-set-2016/3k00/3k00_pocket.pdb
REMARK  256 active torsions:
REMARK  status: ('A' for Active; 'I' for Inactive)
REMARK    1  A    between atoms: _1  and  _3
REMARK    2  A    between atoms: _3  and  _4
REMARK    3  A    between atoms: _3  and  _6
REMARK    4  A    between atoms: _6  and  _7
REMARK    5  A    between atoms: _10  and  _12
REMARK    6  A    between atoms: _12  and  _13
REMARK    7  A    between atoms: _12  and  _15
REMARK    8  A    between atoms: _15  and  _16
REMARK    9  A    between atoms: _19  and  _21
REMARK   10  A    between atoms: _21  and  _22
REMARK   11  A    between atoms: _21  and  _24
REMARK   12  A    between atoms: _24  and  _25
REMARK   13  A    between atoms: _27  and  _29
REMARK   14  A    between atoms: _29  and  _30
REMARK   15  A    between atoms: _29  and  _32
REMARK   16  A    between atoms: _32  and  _33
REMARK   17  A    between atoms: _38  and  _40
REMARK   18  A    between atoms: _40  and  _41
REMARK   19  A    between atoms: _40  and  _43
REMARK   20  A    between atoms: _43  and  _44
REMARK   21  A    between atoms: _44  and  _45
REMARK   22  A    between atoms: _48  and  _50
REMARK   23  A    between atoms: _50  and  _51
REMARK   24  A    between atoms: _54  and  _56
REMARK   25  A    between atoms: _56  and  _57
REMARK   26  A    between atoms: _56  and  _59
REMARK   27  A    between atoms: _59  and  _60
REMARK   28  A    between atoms: _60  and  _61
REMARK   29  A    between atoms: _64  and  _66
REMARK   30  A    between atoms: _66  and  _67
REMARK   31  A    between atoms: _66  and  _69
REMARK   32  A    between atoms: _69  and  _70
REMARK   33  A    between atoms: _70  and  _71
REMARK   34  A    between atoms: _71  and  _72
REMARK   35  A    between atoms: _72  and  _73
REMARK   36  A    between atoms: _77  and  _79
REMARK   37  A    between atoms: _79  and  _80
REMARK   38  A    between atoms: _79  and  _82
REMARK   39  A    between atoms: _82  and  _83
REMARK   40  A    between atoms: _88  and  _89
REMARK   41  A    between atoms: _91  and  _93
REMARK   42  A    between atoms: _93  and  _94
REMARK   43  A    between atoms: _93  and  _96
REMARK   44  A    between atoms: _96  and  _97
REMARK   45  A    between atoms: _102  and  _104
REMARK   46  A    between atoms: _104  and  _105
REMARK   47  A    between atoms: _104  and  _107
REMARK   48  A    between atoms: _111  and  _112
REMARK   49  A    between atoms: _117  and  _119
REMARK   50  A    between atoms: _119  and  _120
REMARK   51  A    between atoms: _119  and  _122
REMARK   52  A    between atoms: _122  and  _123
REMARK   53  A    between atoms: _129  and  _131
REMARK   54  A    between atoms: _131  and  _132
REMARK   55  A    between atoms: _134  and  _136
REMARK   56  A    between atoms: _136  and  _137
REMARK   57  A    between atoms: _136  and  _139
REMARK   58  A    between atoms: _139  and  _140
REMARK   59  A    between atoms: _140  and  _141
REMARK   60  A    between atoms: _144  and  _146
REMARK   61  A    between atoms: _146  and  _147
REMARK   62  A    between atoms: _150  and  _152
REMARK   63  A    between atoms: _152  and  _153
REMARK   64  A    between atoms: _152  and  _155
REMARK   65  A    between atoms: _155  and  _156
REMARK   66  A    between atoms: _161  and  _163
REMARK   67  A    between atoms: _163  and  _164
REMARK   68  A    between atoms: _167  and  _169
REMARK   69  A    between atoms: _169  and  _170
REMARK   70  A    between atoms: _169  and  _172
REMARK   71  A    between atoms: _172  and  _173
REMARK   72  A    between atoms: _173  and  _174
REMARK   73  A    between atoms: _174  and  _175
REMARK   74  A    between atoms: _175  and  _176
REMARK   75  A    between atoms: _180  and  _182
REMARK   76  A    between atoms: _182  and  _183
REMARK   77  A    between atoms: _182  and  _185
REMARK   78  A    between atoms: _185  and  _186
REMARK   79  A    between atoms: _186  and  _187
REMARK   80  A    between atoms: _187  and  _188
REMARK   81  A    between atoms: _188  and  _189
REMARK   82  A    between atoms: _193  and  _195
REMARK   83  A    between atoms: _195  and  _196
REMARK   84  A    between atoms: _195  and  _198
REMARK   85  A    between atoms: _198  and  _199
REMARK   86  A    between atoms: _199  and  _200
REMARK   87  A    between atoms: _200  and  _201
REMARK   88  A    between atoms: _210  and  _212
REMARK   89  A    between atoms: _212  and  _213
REMARK   90  A    between atoms: _212  and  _215
REMARK   91  A    between atoms: _215  and  _216
REMARK   92  A    between atoms: _216  and  _217
REMARK   93  A    between atoms: _220  and  _222
REMARK   94  A    between atoms: _222  and  _223
REMARK   95  A    between atoms: _222  and  _225
REMARK   96  A    between atoms: _228  and  _230
REMARK   97  A    between atoms: _230  and  _231
REMARK   98  A    between atoms: _234  and  _236
REMARK   99  A    between atoms: _236  and  _237
REMARK  100  A    between atoms: _236  and  _239
REMARK  101  A    between atoms: _239  and  _240
REMARK  102  A    between atoms: _250  and  _252
REMARK  103  A    between atoms: _252  and  _253
REMARK  104  A    between atoms: _252  and  _255
REMARK  105  A    between atoms: _258  and  _260
REMARK  106  A    between atoms: _260  and  _261
REMARK  107  A    between atoms: _260  and  _263
REMARK  108  A    between atoms: _263  and  _264
REMARK  109  A    between atoms: _267  and  _269
REMARK  110  A    between atoms: _269  and  _270
REMARK  111  A    between atoms: _269  and  _272
REMARK  112  A    between atoms: _272  and  _273
REMARK  113  A    between atoms: _279  and  _281
REMARK  114  A    between atoms: _281  and  _282
REMARK  115  A    between atoms: _281  and  _284
REMARK  116  A    between atoms: _284  and  _285
REMARK  117  A    between atoms: _285  and  _286
REMARK  118  A    between atoms: _291  and  _293
REMARK  119  A    between atoms: _293  and  _294
REMARK  120  A    between atoms: _293  and  _296
REMARK  121  A    between atoms: _299  and  _301
REMARK  122  A    between atoms: _301  and  _302
REMARK  123  A    between atoms: _301  and  _304
REMARK  124  A    between atoms: _304  and  _305
REMARK  125  A    between atoms: _308  and  _310
REMARK  126  A    between atoms: _310  and  _311
REMARK  127  A    between atoms: _310  and  _313
REMARK  128  A    between atoms: _313  and  _314
REMARK  129  A    between atoms: _317  and  _319
REMARK  130  A    between atoms: _319  and  _320
REMARK  131  A    between atoms: _319  and  _322
REMARK  132  A    between atoms: _322  and  _323
REMARK  133  A    between atoms: _326  and  _328
REMARK  134  A    between atoms: _328  and  _329
REMARK  135  A    between atoms: _328  and  _331
REMARK  136  A    between atoms: _331  and  _332
REMARK  137  A    between atoms: _335  and  _337
REMARK  138  A    between atoms: _337  and  _338
REMARK  139  A    between atoms: _337  and  _340
REMARK  140  A    between atoms: _340  and  _341
REMARK  141  A    between atoms: _341  and  _342
REMARK  142  A    between atoms: _342  and  _343
REMARK  143  A    between atoms: _352  and  _354
REMARK  144  A    between atoms: _354  and  _355
REMARK  145  A    between atoms: _354  and  _357
REMARK  146  A    between atoms: _357  and  _358
REMARK  147  A    between atoms: _361  and  _363
REMARK  148  A    between atoms: _363  and  _364
REMARK  149  A    between atoms: _363  and  _366
REMARK  150  A    between atoms: _366  and  _367
REMARK  151  A    between atoms: _371  and  _372
REMARK  152  A    between atoms: _377  and  _379
REMARK  153  A    between atoms: _379  and  _380
REMARK  154  A    between atoms: _379  and  _382
REMARK  155  A    between atoms: _382  and  _383
REMARK  156  A    between atoms: _388  and  _389
REMARK  157  A    between atoms: _391  and  _393
REMARK  158  A    between atoms: _393  and  _394
REMARK  159  A    between atoms: _393  and  _396
REMARK  160  A    between atoms: _396  and  _397
REMARK  161  A    between atoms: _407  and  _409
REMARK  162  A    between atoms: _409  and  _410
REMARK  163  A    between atoms: _409  and  _412
REMARK  164  A    between atoms: _412  and  _413
REMARK  165  A    between atoms: _419  and  _421
REMARK  166  A    between atoms: _421  and  _422
REMARK  167  A    between atoms: _421  and  _424
REMARK  168  A    between atoms: _424  and  _425
REMARK  169  A    between atoms: _428  and  _430
REMARK  170  A    between atoms: _430  and  _431
REMARK  171  A    between atoms: _430  and  _433
REMARK  172  A    between atoms: _433  and  _434
REMARK  173  A    between atoms: _444  and  _446
REMARK  174  A    between atoms: _446  and  _447
REMARK  175  A    between atoms: _446  and  _449
REMARK  176  A    between atoms: _449  and  _450
REMARK  177  A    between atoms: _450  and  _451
REMARK  178  A    between atoms: _453  and  _455
REMARK  179  A    between atoms: _455  and  _456
REMARK  180  A    between atoms: _455  and  _458
REMARK  181  A    between atoms: _458  and  _459
REMARK  182  A    between atoms: _464  and  _466
REMARK  183  A    between atoms: _466  and  _467
REMARK  184  A    between atoms: _470  and  _471
REMARK  185  A    between atoms: _476  and  _478
REMARK  186  A    between atoms: _478  and  _479
REMARK  187  A    between atoms: _478  and  _481
REMARK  188  A    between atoms: _481  and  _482
REMARK  189  A    between atoms: _492  and  _494
REMARK  190  A    between atoms: _494  and  _495
REMARK  191  A    between atoms: _499  and  _500
REMARK  192  A    between atoms: _505  and  _507
REMARK  193  A    between atoms: _507  and  _508
REMARK  194  A    between atoms: _507  and  _510
REMARK  195  A    between atoms: _510  and  _511
REMARK  196  A    between atoms: _511  and  _512
REMARK  197  A    between atoms: _517  and  _519
REMARK  198  A    between atoms: _519  and  _520
REMARK  199  A    between atoms: _522  and  _524
REMARK  200  A    between atoms: _524  and  _525
REMARK  201  A    between atoms: _527  and  _529
REMARK  202  A    between atoms: _529  and  _530
REMARK  203  A    between atoms: _529  and  _532
REMARK  204  A    between atoms: _532  and  _533
REMARK  205  A    between atoms: _543  and  _545
REMARK  206  A    between atoms: _545  and  _546
REMARK  207  A    between atoms: _545  and  _548
REMARK  208  A    between atoms: _548  and  _549
REMARK  209  A    between atoms: _552  and  _554
REMARK  210  A    between atoms: _554  and  _555
REMARK  211  A    between atoms: _554  and  _557
REMARK  212  A    between atoms: _557  and  _558
REMARK  213  A    between atoms: _561  and  _563
REMARK  214  A    between atoms: _563  and  _564
REMARK  215  A    between atoms: _563  and  _566
REMARK  216  A    between atoms: _566  and  _567
REMARK  217  A    between atoms: _567  and  _568
REMARK  218  A    between atoms: _568  and  _569
REMARK  219  A    between atoms: _578  and  _580
REMARK  220  A    between atoms: _580  and  _581
REMARK  221  A    between atoms: _580  and  _583
REMARK  222  A    between atoms: _583  and  _584
REMARK  223  A    between atoms: _594  and  _596
REMARK  224  A    between atoms: _596  and  _597
REMARK  225  A    between atoms: _600  and  _602
REMARK  226  A    between atoms: _602  and  _603
REMARK  227  A    between atoms: _602  and  _605
REMARK  228  A    between atoms: _605  and  _606
REMARK  229  A    between atoms: _606  and  _607
REMARK  230  A    between atoms: _610  and  _612
REMARK  231  A    between atoms: _612  and  _613
REMARK  232  A    between atoms: _615  and  _617
REMARK  233  A    between atoms: _617  and  _618
REMARK  234  A    between atoms: _617  and  _620
REMARK  235  A    between atoms: _620  and  _621
REMARK  236  A    between atoms: _626  and  _628
REMARK  237  A    between atoms: _628  and  _629
REMARK  238  A    between atoms: _632  and  _634
REMARK  239  A    between atoms: _634  and  _635
REMARK  240  A    between atoms: _634  and  _637
REMARK  241  A    between atoms: _637  and  _638
REMARK  242  A    between atoms: _641  and  _643
REMARK  243  A    between atoms: _643  and  _644
REMARK  244  A    between atoms: _643  and  _646
REMARK  245  A    between atoms: _646  and  _647
REMARK  246  A    between atoms: _653  and  _655
REMARK  247  A    between atoms: _655  and  _656
REMARK  248  A    between atoms: _655  and  _658
REMARK  249  A    between atoms: _658  and  _659
REMARK  250  A    between atoms: _659  and  _660
REMARK  251  A    between atoms: _663  and  _665
REMARK  252  A    between atoms: _665  and  _666
REMARK  253  A    between atoms: _665  and  _668
REMARK  254  A    between atoms: _668  and  _669
REMARK  255  A    between atoms: _669  and  _670
REMARK  256  A    between atoms: _670  and  _671
REMARK                            x       y       z     vdW  Elec       q    Type
REMARK                         _______ _______ _______ _____ _____    ______ ____
ROOT
ATOM      1  O   HOH     1     -12.529 -14.467  20.018  0.00  0.00    +0.000 OA
ENDROOT
TORSDOF 0
REMARK  Name = ../refined-set-2016/3k00/3k00_pocket.pdb
REMARK  256 active torsions:
REMARK  status: ('A' for Active; 'I' for Inactive)
REMARK    1  A    between atoms: _1  and  _3
REMARK    2  A    between atoms: _3  and  _4
REMARK    3  A    between atoms: _3  and  _6
REMARK    4  A    between atoms: _6  and  _7
REMARK    5  A    between atoms: _10  and  _12
REMARK    6  A    between atoms: _12  and  _13
REMARK    7  A    between atoms: _12  and  _15
REMARK    8  A    between atoms: _15  and  _16
REMARK    9  A    between atoms: _19  and  _21
REMARK   10  A    between atoms: _21  and  _22
REMARK   11  A    between atoms: _21  and  _24
REMARK   12  A    between atoms: _24  and  _25
REMARK   13  A    between atoms: _27  and  _29
REMARK   14  A    between atoms: _29  and  _30
REMARK   15  A    between atoms: _29  and  _32
REMARK   16  A    between atoms: _32  and  _33
REMARK   17  A    between atoms: _38  and  _40
REMARK   18  A    between atoms: _40  and  _41
REMARK   19  A    between atoms: _40  and  _43
REMARK   20  A    between atoms: _43  and  _44
REMARK   21  A    between atoms: _44  and  _45
REMARK   22  A    between atoms: _48  and  _50
REMARK   23  A    between atoms: _50  and  _51
REMARK   24  A    between atoms: _54  and  _56
REMARK   25  A    between atoms: _56  and  _57
REMARK   26  A    between atoms: _56  and  _59
REMARK   27  A    between atoms: _59  and  _60
REMARK   28  A    between atoms: _60  and  _61
REMARK   29  A    between atoms: _64  and  _66
REMARK   30  A    between atoms: _66  and  _67
REMARK   31  A    between atoms: _66  and  _69
REMARK   32  A    between atoms: _69  and  _70
REMARK   33  A    between atoms: _70  and  _71
REMARK   34  A    between atoms: _71  and  _72
REMARK   35  A    between atoms: _72  and  _73
REMARK   36  A    between atoms: _77  and  _79
REMARK   37  A    between atoms: _79  and  _80
REMARK   38  A    between atoms: _79  and  _82
REMARK   39  A    between atoms: _82  and  _83
REMARK   40  A    between atoms: _88  and  _89
REMARK   41  A    between atoms: _91  and  _93
REMARK   42  A    between atoms: _93  and  _94
REMARK   43  A    between atoms: _93  and  _96
REMARK   44  A    between atoms: _96  and  _97
REMARK   45  A    between atoms: _102  and  _104
REMARK   46  A    between atoms: _104  and  _105
REMARK   47  A    between atoms: _104  and  _107
REMARK   48  A    between atoms: _111  and  _112
REMARK   49  A    between atoms: _117  and  _119
REMARK   50  A    between atoms: _119  and  _120
REMARK   51  A    between atoms: _119  and  _122
REMARK   52  A    between atoms: _122  and  _123
REMARK   53  A    between atoms: _129  and  _131
REMARK   54  A    between atoms: _131  and  _132
REMARK   55  A    between atoms: _134  and  _136
REMARK   56  A    between atoms: _136  and  _137
REMARK   57  A    between atoms: _136  and  _139
REMARK   58  A    between atoms: _139  and  _140
REMARK   59  A    between atoms: _140  and  _141
REMARK   60  A    between atoms: _144  and  _146
REMARK   61  A    between atoms: _146  and  _147
REMARK   62  A    between atoms: _150  and  _152
REMARK   63  A    between atoms: _152  and  _153
REMARK   64  A    between atoms: _152  and  _155
REMARK   65  A    between atoms: _155  and  _156
REMARK   66  A    between atoms: _161  and  _163
REMARK   67  A    between atoms: _163  and  _164
REMARK   68  A    between atoms: _167  and  _169
REMARK   69  A    between atoms: _169  and  _170
REMARK   70  A    between atoms: _169  and  _172
REMARK   71  A    between atoms: _172  and  _173
REMARK   72  A    between atoms: _173  and  _174
REMARK   73  A    between atoms: _174  and  _175
REMARK   74  A    between atoms: _175  and  _176
REMARK   75  A    between atoms: _180  and  _182
REMARK   76  A    between atoms: _182  and  _183
REMARK   77  A    between atoms: _182  and  _185
REMARK   78  A    between atoms: _185  and  _186
REMARK   79  A    between atoms: _186  and  _187
REMARK   80  A    between atoms: _187  and  _188
REMARK   81  A    between atoms: _188  and  _189
REMARK   82  A    between atoms: _193  and  _195
REMARK   83  A    between atoms: _195  and  _196
REMARK   84  A    between atoms: _195  and  _198
REMARK   85  A    between atoms: _198  and  _199
REMARK   86  A    between atoms: _199  and  _200
REMARK   87  A    between atoms: _200  and  _201
REMARK   88  A    between atoms: _210  and  _212
REMARK   89  A    between atoms: _212  and  _213
REMARK   90  A    between atoms: _212  and  _215
REMARK   91  A    between atoms: _215  and  _216
REMARK   92  A    between atoms: _216  and  _217
REMARK   93  A    between atoms: _220  and  _222
REMARK   94  A    between atoms: _222  and  _223
REMARK   95  A    between atoms: _222  and  _225
REMARK   96  A    between atoms: _228  and  _230
REMARK   97  A    between atoms: _230  and  _231
REMARK   98  A    between atoms: _234  and  _236
REMARK   99  A    between atoms: _236  and  _237
REMARK  100  A    between atoms: _236  and  _239
REMARK  101  A    between atoms: _239  and  _240
REMARK  102  A    between atoms: _250  and  _252
REMARK  103  A    between atoms: _252  and  _253
REMARK  104  A    between atoms: _252  and  _255
REMARK  105  A    between atoms: _258  and  _260
REMARK  106  A    between atoms: _260  and  _261
REMARK  107  A    between atoms: _260  and  _263
REMARK  108  A    between atoms: _263  and  _264
REMARK  109  A    between atoms: _267  and  _269
REMARK  110  A    between atoms: _269  and  _270
REMARK  111  A    between atoms: _269  and  _272
REMARK  112  A    between atoms: _272  and  _273
REMARK  113  A    between atoms: _279  and  _281
REMARK  114  A    between atoms: _281  and  _282
REMARK  115  A    between atoms: _281  and  _284
REMARK  116  A    between atoms: _284  and  _285
REMARK  117  A    between atoms: _285  and  _286
REMARK  118  A    between atoms: _291  and  _293
REMARK  119  A    between atoms: _293  and  _294
REMARK  120  A    between atoms: _293  and  _296
REMARK  121  A    between atoms: _299  and  _301
REMARK  122  A    between atoms: _301  and  _302
REMARK  123  A    between atoms: _301  and  _304
REMARK  124  A    between atoms: _304  and  _305
REMARK  125  A    between atoms: _308  and  _310
REMARK  126  A    between atoms: _310  and  _311
REMARK  127  A    between atoms: _310  and  _313
REMARK  128  A    between atoms: _313  and  _314
REMARK  129  A    between atoms: _317  and  _319
REMARK  130  A    between atoms: _319  and  _320
REMARK  131  A    between atoms: _319  and  _322
REMARK  132  A    between atoms: _322  and  _323
REMARK  133  A    between atoms: _326  and  _328
REMARK  134  A    between atoms: _328  and  _329
REMARK  135  A    between atoms: _328  and  _331
REMARK  136  A    between atoms: _331  and  _332
REMARK  137  A    between atoms: _335  and  _337
REMARK  138  A    between atoms: _337  and  _338
REMARK  139  A    between atoms: _337  and  _340
REMARK  140  A    between atoms: _340  and  _341
REMARK  141  A    between atoms: _341  and  _342
REMARK  142  A    between atoms: _342  and  _343
REMARK  143  A    between atoms: _352  and  _354
REMARK  144  A    between atoms: _354  and  _355
REMARK  145  A    between atoms: _354  and  _357
REMARK  146  A    between atoms: _357  and  _358
REMARK  147  A    between atoms: _361  and  _363
REMARK  148  A    between atoms: _363  and  _364
REMARK  149  A    between atoms: _363  and  _366
REMARK  150  A    between atoms: _366  and  _367
REMARK  151  A    between atoms: _371  and  _372
REMARK  152  A    between atoms: _377  and  _379
REMARK  153  A    between atoms: _379  and  _380
REMARK  154  A    between atoms: _379  and  _382
REMARK  155  A    between atoms: _382  and  _383
REMARK  156  A    between atoms: _388  and  _389
REMARK  157  A    between atoms: _391  and  _393
REMARK  158  A    between atoms: _393  and  _394
REMARK  159  A    between atoms: _393  and  _396
REMARK  160  A    between atoms: _396  and  _397
REMARK  161  A    between atoms: _407  and  _409
REMARK  162  A    between atoms: _409  and  _410
REMARK  163  A    between atoms: _409  and  _412
REMARK  164  A    between atoms: _412  and  _413
REMARK  165  A    between atoms: _419  and  _421
REMARK  166  A    between atoms: _421  and  _422
REMARK  167  A    between atoms: _421  and  _424
REMARK  168  A    between atoms: _424  and  _425
REMARK  169  A    between atoms: _428  and  _430
REMARK  170  A    between atoms: _430  and  _431
REMARK  171  A    between atoms: _430  and  _433
REMARK  172  A    between atoms: _433  and  _434
REMARK  173  A    between atoms: _444  and  _446
REMARK  174  A    between atoms: _446  and  _447
REMARK  175  A    between atoms: _446  and  _449
REMARK  176  A    between atoms: _449  and  _450
REMARK  177  A    between atoms: _450  and  _451
REMARK  178  A    between atoms: _453  and  _455
REMARK  179  A    between atoms: _455  and  _456
REMARK  180  A    between atoms: _455  and  _458
REMARK  181  A    between atoms: _458  and  _459
REMARK  182  A    between atoms: _464  and  _466
REMARK  183  A    between atoms: _466  and  _467
REMARK  184  A    between atoms: _470  and  _471
REMARK  185  A    between atoms: _476  and  _478
REMARK  186  A    between atoms: _478  and  _479
REMARK  187  A    between atoms: _478  and  _481
REMARK  188  A    between atoms: _481  and  _482
REMARK  189  A    between atoms: _492  and  _494
REMARK  190  A    between atoms: _494  and  _495
REMARK  191  A    between atoms: _499  and  _500
REMARK  192  A    between atoms: _505  and  _507
REMARK  193  A    between atoms: _507  and  _508
REMARK  194  A    between atoms: _507  and  _510
REMARK  195  A    between atoms: _510  and  _511
REMARK  196  A    between atoms: _511  and  _512
REMARK  197  A    between atoms: _517  and  _519
REMARK  198  A    between atoms: _519  and  _520
REMARK  199  A    between atoms: _522  and  _524
REMARK  200  A    between atoms: _524  and  _525
REMARK  201  A    between atoms: _527  and  _529
REMARK  202  A    between atoms: _529  and  _530
REMARK  203  A    between atoms: _529  and  _532
REMARK  204  A    between atoms: _532  and  _533
REMARK  205  A    between atoms: _543  and  _545
REMARK  206  A    between atoms: _545  and  _546
REMARK  207  A    between atoms: _545  and  _548
REMARK  208  A    between atoms: _548  and  _549
REMARK  209  A    between atoms: _552  and  _554
REMARK  210  A    between atoms: _554  and  _555
REMARK  211  A    between atoms: _554  and  _557
REMARK  212  A    between atoms: _557  and  _558
REMARK  213  A    between atoms: _561  and  _563
REMARK  214  A    between atoms: _563  and  _564
REMARK  215  A    between atoms: _563  and  _566
REMARK  216  A    between atoms: _566  and  _567
REMARK  217  A    between atoms: _567  and  _568
REMARK  218  A    between atoms: _568  and  _569
REMARK  219  A    between atoms: _578  and  _580
REMARK  220  A    between atoms: _580  and  _581
REMARK  221  A    between atoms: _580  and  _583
REMARK  222  A    between atoms: _583  and  _584
REMARK  223  A    between atoms: _594  and  _596
REMARK  224  A    between atoms: _596  and  _597
REMARK  225  A    between atoms: _600  and  _602
REMARK  226  A    between atoms: _602  and  _603
REMARK  227  A    between atoms: _602  and  _605
REMARK  228  A    between atoms: _605  and  _606
REMARK  229  A    between atoms: _606  and  _607
REMARK  230  A    between atoms: _610  and  _612
REMARK  231  A    between atoms: _612  and  _613
REMARK  232  A    between atoms: _615  and  _617
REMARK  233  A    between atoms: _617  and  _618
REMARK  234  A    between atoms: _617  and  _620
REMARK  235  A    between atoms: _620  and  _621
REMARK  236  A    between atoms: _626  and  _628
REMARK  237  A    between atoms: _628  and  _629
REMARK  238  A    between atoms: _632  and  _634
REMARK  239  A    between atoms: _634  and  _635
REMARK  240  A    between atoms: _634  and  _637
REMARK  241  A    between atoms: _637  and  _638
REMARK  242  A    between atoms: _641  and  _643
REMARK  243  A    between atoms: _643  and  _644
REMARK  244  A    between atoms: _643  and  _646
REMARK  245  A    between atoms: _646  and  _647
REMARK  246  A    between atoms: _653  and  _655
REMARK  247  A    between atoms: _655  and  _656
REMARK  248  A    between atoms: _655  and  _658
REMARK  249  A    between atoms: _658  and  _659
REMARK  250  A    between atoms: _659  and  _660
REMARK  251  A    between atoms: _663  and  _665
REMARK  252  A    between atoms: _665  and  _666
REMARK  253  A    between atoms: _665  and  _668
REMARK  254  A    between atoms: _668  and  _669
REMARK  255  A    between atoms: _669  and  _670
REMARK  256  A    between atoms: _670  and  _671
REMARK                            x       y       z     vdW  Elec       q    Type
REMARK                         _______ _______ _______ _____ _____    ______ ____
ROOT
ATOM      1  O   HOH     1       0.876  -6.531  30.126  0.00  0.00    +0.000 OA
ENDROOT
TORSDOF 0
REMARK  Name = ../refined-set-2016/3k00/3k00_pocket.pdb
REMARK  256 active torsions:
REMARK  status: ('A' for Active; 'I' for Inactive)
REMARK    1  A    between atoms: _1  and  _3
REMARK    2  A    between atoms: _3  and  _4
REMARK    3  A    between atoms: _3  and  _6
REMARK    4  A    between atoms: _6  and  _7
REMARK    5  A    between atoms: _10  and  _12
REMARK    6  A    between atoms: _12  and  _13
REMARK    7  A    between atoms: _12  and  _15
REMARK    8  A    between atoms: _15  and  _16
REMARK    9  A    between atoms: _19  and  _21
REMARK   10  A    between atoms: _21  and  _22
REMARK   11  A    between atoms: _21  and  _24
REMARK   12  A    between atoms: _24  and  _25
REMARK   13  A    between atoms: _27  and  _29
REMARK   14  A    between atoms: _29  and  _30
REMARK   15  A    between atoms: _29  and  _32
REMARK   16  A    between atoms: _32  and  _33
REMARK   17  A    between atoms: _38  and  _40
REMARK   18  A    between atoms: _40  and  _41
REMARK   19  A    between atoms: _40  and  _43
REMARK   20  A    between atoms: _43  and  _44
REMARK   21  A    between atoms: _44  and  _45
REMARK   22  A    between atoms: _48  and  _50
REMARK   23  A    between atoms: _50  and  _51
REMARK   24  A    between atoms: _54  and  _56
REMARK   25  A    between atoms: _56  and  _57
REMARK   26  A    between atoms: _56  and  _59
REMARK   27  A    between atoms: _59  and  _60
REMARK   28  A    between atoms: _60  and  _61
REMARK   29  A    between atoms: _64  and  _66
REMARK   30  A    between atoms: _66  and  _67
REMARK   31  A    between atoms: _66  and  _69
REMARK   32  A    between atoms: _69  and  _70
REMARK   33  A    between atoms: _70  and  _71
REMARK   34  A    between atoms: _71  and  _72
REMARK   35  A    between atoms: _72  and  _73
REMARK   36  A    between atoms: _77  and  _79
REMARK   37  A    between atoms: _79  and  _80
REMARK   38  A    between atoms: _79  and  _82
REMARK   39  A    between atoms: _82  and  _83
REMARK   40  A    between atoms: _88  and  _89
REMARK   41  A    between atoms: _91  and  _93
REMARK   42  A    between atoms: _93  and  _94
REMARK   43  A    between atoms: _93  and  _96
REMARK   44  A    between atoms: _96  and  _97
REMARK   45  A    between atoms: _102  and  _104
REMARK   46  A    between atoms: _104  and  _105
REMARK   47  A    between atoms: _104  and  _107
REMARK   48  A    between atoms: _111  and  _112
REMARK   49  A    between atoms: _117  and  _119
REMARK   50  A    between atoms: _119  and  _120
REMARK   51  A    between atoms: _119  and  _122
REMARK   52  A    between atoms: _122  and  _123
REMARK   53  A    between atoms: _129  and  _131
REMARK   54  A    between atoms: _131  and  _132
REMARK   55  A    between atoms: _134  and  _136
REMARK   56  A    between atoms: _136  and  _137
REMARK   57  A    between atoms: _136  and  _139
REMARK   58  A    between atoms: _139  and  _140
REMARK   59  A    between atoms: _140  and  _141
REMARK   60  A    between atoms: _144  and  _146
REMARK   61  A    between atoms: _146  and  _147
REMARK   62  A    between atoms: _150  and  _152
REMARK   63  A    between atoms: _152  and  _153
REMARK   64  A    between atoms: _152  and  _155
REMARK   65  A    between atoms: _155  and  _156
REMARK   66  A    between atoms: _161  and  _163
REMARK   67  A    between atoms: _163  and  _164
REMARK   68  A    between atoms: _167  and  _169
REMARK   69  A    between atoms: _169  and  _170
REMARK   70  A    between atoms: _169  and  _172
REMARK   71  A    between atoms: _172  and  _173
REMARK   72  A    between atoms: _173  and  _174
REMARK   73  A    between atoms: _174  and  _175
REMARK   74  A    between atoms: _175  and  _176
REMARK   75  A    between atoms: _180  and  _182
REMARK   76  A    between atoms: _182  and  _183
REMARK   77  A    between atoms: _182  and  _185
REMARK   78  A    between atoms: _185  and  _186
REMARK   79  A    between atoms: _186  and  _187
REMARK   80  A    between atoms: _187  and  _188
REMARK   81  A    between atoms: _188  and  _189
REMARK   82  A    between atoms: _193  and  _195
REMARK   83  A    between atoms: _195  and  _196
REMARK   84  A    between atoms: _195  and  _198
REMARK   85  A    between atoms: _198  and  _199
REMARK   86  A    between atoms: _199  and  _200
REMARK   87  A    between atoms: _200  and  _201
REMARK   88  A    between atoms: _210  and  _212
REMARK   89  A    between atoms: _212  and  _213
REMARK   90  A    between atoms: _212  and  _215
REMARK   91  A    between atoms: _215  and  _216
REMARK   92  A    between atoms: _216  and  _217
REMARK   93  A    between atoms: _220  and  _222
REMARK   94  A    between atoms: _222  and  _223
REMARK   95  A    between atoms: _222  and  _225
REMARK   96  A    between atoms: _228  and  _230
REMARK   97  A    between atoms: _230  and  _231
REMARK   98  A    between atoms: _234  and  _236
REMARK   99  A    between atoms: _236  and  _237
REMARK  100  A    between atoms: _236  and  _239
REMARK  101  A    between atoms: _239  and  _240
REMARK  102  A    between atoms: _250  and  _252
REMARK  103  A    between atoms: _252  and  _253
REMARK  104  A    between atoms: _252  and  _255
REMARK  105  A    between atoms: _258  and  _260
REMARK  106  A    between atoms: _260  and  _261
REMARK  107  A    between atoms: _260  and  _263
REMARK  108  A    between atoms: _263  and  _264
REMARK  109  A    between atoms: _267  and  _269
REMARK  110  A    between atoms: _269  and  _270
REMARK  111  A    between atoms: _269  and  _272
REMARK  112  A    between atoms: _272  and  _273
REMARK  113  A    between atoms: _279  and  _281
REMARK  114  A    between atoms: _281  and  _282
REMARK  115  A    between atoms: _281  and  _284
REMARK  116  A    between atoms: _284  and  _285
REMARK  117  A    between atoms: _285  and  _286
REMARK  118  A    between atoms: _291  and  _293
REMARK  119  A    between atoms: _293  and  _294
REMARK  120  A    between atoms: _293  and  _296
REMARK  121  A    between atoms: _299  and  _301
REMARK  122  A    between atoms: _301  and  _302
REMARK  123  A    between atoms: _301  and  _304
REMARK  124  A    between atoms: _304  and  _305
REMARK  125  A    between atoms: _308  and  _310
REMARK  126  A    between atoms: _310  and  _311
REMARK  127  A    between atoms: _310  and  _313
REMARK  128  A    between atoms: _313  and  _314
REMARK  129  A    between atoms: _317  and  _319
REMARK  130  A    between atoms: _319  and  _320
REMARK  131  A    between atoms: _319  and  _322
REMARK  132  A    between atoms: _322  and  _323
REMARK  133  A    between atoms: _326  and  _328
REMARK  134  A    between atoms: _328  and  _329
REMARK  135  A    between atoms: _328  and  _331
REMARK  136  A    between atoms: _331  and  _332
REMARK  137  A    between atoms: _335  and  _337
REMARK  138  A    between atoms: _337  and  _338
REMARK  139  A    between atoms: _337  and  _340
REMARK  140  A    between atoms: _340  and  _341
REMARK  141  A    between atoms: _341  and  _342
REMARK  142  A    between atoms: _342  and  _343
REMARK  143  A    between atoms: _352  and  _354
REMARK  144  A    between atoms: _354  and  _355
REMARK  145  A    between atoms: _354  and  _357
REMARK  146  A    between atoms: _357  and  _358
REMARK  147  A    between atoms: _361  and  _363
REMARK  148  A    between atoms: _363  and  _364
REMARK  149  A    between atoms: _363  and  _366
REMARK  150  A    between atoms: _366  and  _367
REMARK  151  A    between atoms: _371  and  _372
REMARK  152  A    between atoms: _377  and  _379
REMARK  153  A    between atoms: _379  and  _380
REMARK  154  A    between atoms: _379  and  _382
REMARK  155  A    between atoms: _382  and  _383
REMARK  156  A    between atoms: _388  and  _389
REMARK  157  A    between atoms: _391  and  _393
REMARK  158  A    between atoms: _393  and  _394
REMARK  159  A    between atoms: _393  and  _396
REMARK  160  A    between atoms: _396  and  _397
REMARK  161  A    between atoms: _407  and  _409
REMARK  162  A    between atoms: _409  and  _410
REMARK  163  A    between atoms: _409  and  _412
REMARK  164  A    between atoms: _412  and  _413
REMARK  165  A    between atoms: _419  and  _421
REMARK  166  A    between atoms: _421  and  _422
REMARK  167  A    between atoms: _421  and  _424
REMARK  168  A    between atoms: _424  and  _425
REMARK  169  A    between atoms: _428  and  _430
REMARK  170  A    between atoms: _430  and  _431
REMARK  171  A    between atoms: _430  and  _433
REMARK  172  A    between atoms: _433  and  _434
REMARK  173  A    between atoms: _444  and  _446
REMARK  174  A    between atoms: _446  and  _447
REMARK  175  A    between atoms: _446  and  _449
REMARK  176  A    between atoms: _449  and  _450
REMARK  177  A    between atoms: _450  and  _451
REMARK  178  A    between atoms: _453  and  _455
REMARK  179  A    between atoms: _455  and  _456
REMARK  180  A    between atoms: _455  and  _458
REMARK  181  A    between atoms: _458  and  _459
REMARK  182  A    between atoms: _464  and  _466
REMARK  183  A    between atoms: _466  and  _467
REMARK  184  A    between atoms: _470  and  _471
REMARK  185  A    between atoms: _476  and  _478
REMARK  186  A    between atoms: _478  and  _479
REMARK  187  A    between atoms: _478  and  _481
REMARK  188  A    between atoms: _481  and  _482
REMARK  189  A    between atoms: _492  and  _494
REMARK  190  A    between atoms: _494  and  _495
REMARK  191  A    between atoms: _499  and  _500
REMARK  192  A    between atoms: _505  and  _507
REMARK  193  A    between atoms: _507  and  _508
REMARK  194  A    between atoms: _507  and  _510
REMARK  195  A    between atoms: _510  and  _511
REMARK  196  A    between atoms: _511  and  _512
REMARK  197  A    between atoms: _517  and  _519
REMARK  198  A    between atoms: _519  and  _520
REMARK  199  A    between atoms: _522  and  _524
REMARK  200  A    between atoms: _524  and  _525
REMARK  201  A    between atoms: _527  and  _529
REMARK  202  A    between atoms: _529  and  _530
REMARK  203  A    between atoms: _529  and  _532
REMARK  204  A    between atoms: _532  and  _533
REMARK  205  A    between atoms: _543  and  _545
REMARK  206  A    between atoms: _545  and  _546
REMARK  207  A    between atoms: _545  and  _548
REMARK  208  A    between atoms: _548  and  _549
REMARK  209  A    between atoms: _552  and  _554
REMARK  210  A    between atoms: _554  and  _555
REMARK  211  A    between atoms: _554  and  _557
REMARK  212  A    between atoms: _557  and  _558
REMARK  213  A    between atoms: _561  and  _563
REMARK  214  A    between atoms: _563  and  _564
REMARK  215  A    between atoms: _563  and  _566
REMARK  216  A    between atoms: _566  and  _567
REMARK  217  A    between atoms: _567  and  _568
REMARK  218  A    between atoms: _568  and  _569
REMARK  219  A    between atoms: _578  and  _580
REMARK  220  A    between atoms: _580  and  _581
REMARK  221  A    between atoms: _580  and  _583
REMARK  222  A    between atoms: _583  and  _584
REMARK  223  A    between atoms: _594  and  _596
REMARK  224  A    between atoms: _596  and  _597
REMARK  225  A    between atoms: _600  and  _602
REMARK  226  A    between atoms: _602  and  _603
REMARK  227  A    between atoms: _602  and  _605
REMARK  228  A    between atoms: _605  and  _606
REMARK  229  A    between atoms: _606  and  _607
REMARK  230  A    between atoms: _610  and  _612
REMARK  231  A    between atoms: _612  and  _613
REMARK  232  A    between atoms: _615  and  _617
REMARK  233  A    between atoms: _617  and  _618
REMARK  234  A    between atoms: _617  and  _620
REMARK  235  A    between atoms: _620  and  _621
REMARK  236  A    between atoms: _626  and  _628
REMARK  237  A    between atoms: _628  and  _629
REMARK  238  A    between atoms: _632  and  _634
REMARK  239  A    between atoms: _634  and  _635
REMARK  240  A    between atoms: _634  and  _637
REMARK  241  A    between atoms: _637  and  _638
REMARK  242  A    between atoms: _641  and  _643
REMARK  243  A    between atoms: _643  and  _644
REMARK  244  A    between atoms: _643  and  _646
REMARK  245  A    between atoms: _646  and  _647
REMARK  246  A    between atoms: _653  and  _655
REMARK  247  A    between atoms: _655  and  _656
REMARK  248  A    between atoms: _655  and  _658
REMARK  249  A    between atoms: _658  and  _659
REMARK  250  A    between atoms: _659  and  _660
REMARK  251  A    between atoms: _663  and  _665
REMARK  252  A    between atoms: _665  and  _666
REMARK  253  A    between atoms: _665  and  _668
REMARK  254  A    between atoms: _668  and  _669
REMARK  255  A    between atoms: _669  and  _670
REMARK  256  A    between atoms: _670  and  _671
REMARK                            x       y       z     vdW  Elec       q    Type
REMARK                         _______ _______ _______ _____ _____    ______ ____
ROOT
ATOM      1  O   HOH     1      -4.843 -15.808  19.458  0.00  0.00    +0.000 OA
ENDROOT
TORSDOF 0
REMARK  Name = ../refined-set-2016/3k00/3k00_pocket.pdb
REMARK  256 active torsions:
REMARK  status: ('A' for Active; 'I' for Inactive)
REMARK    1  A    between atoms: _1  and  _3
REMARK    2  A    between atoms: _3  and  _4
REMARK    3  A    between atoms: _3  and  _6
REMARK    4  A    between atoms: _6  and  _7
REMARK    5  A    between atoms: _10  and  _12
REMARK    6  A    between atoms: _12  and  _13
REMARK    7  A    between atoms: _12  and  _15
REMARK    8  A    between atoms: _15  and  _16
REMARK    9  A    between atoms: _19  and  _21
REMARK   10  A    between atoms: _21  and  _22
REMARK   11  A    between atoms: _21  and  _24
REMARK   12  A    between atoms: _24  and  _25
REMARK   13  A    between atoms: _27  and  _29
REMARK   14  A    between atoms: _29  and  _30
REMARK   15  A    between atoms: _29  and  _32
REMARK   16  A    between atoms: _32  and  _33
REMARK   17  A    between atoms: _38  and  _40
REMARK   18  A    between atoms: _40  and  _41
REMARK   19  A    between atoms: _40  and  _43
REMARK   20  A    between atoms: _43  and  _44
REMARK   21  A    between atoms: _44  and  _45
REMARK   22  A    between atoms: _48  and  _50
REMARK   23  A    between atoms: _50  and  _51
REMARK   24  A    between atoms: _54  and  _56
REMARK   25  A    between atoms: _56  and  _57
REMARK   26  A    between atoms: _56  and  _59
REMARK   27  A    between atoms: _59  and  _60
REMARK   28  A    between atoms: _60  and  _61
REMARK   29  A    between atoms: _64  and  _66
REMARK   30  A    between atoms: _66  and  _67
REMARK   31  A    between atoms: _66  and  _69
REMARK   32  A    between atoms: _69  and  _70
REMARK   33  A    between atoms: _70  and  _71
REMARK   34  A    between atoms: _71  and  _72
REMARK   35  A    between atoms: _72  and  _73
REMARK   36  A    between atoms: _77  and  _79
REMARK   37  A    between atoms: _79  and  _80
REMARK   38  A    between atoms: _79  and  _82
REMARK   39  A    between atoms: _82  and  _83
REMARK   40  A    between atoms: _88  and  _89
REMARK   41  A    between atoms: _91  and  _93
REMARK   42  A    between atoms: _93  and  _94
REMARK   43  A    between atoms: _93  and  _96
REMARK   44  A    between atoms: _96  and  _97
REMARK   45  A    between atoms: _102  and  _104
REMARK   46  A    between atoms: _104  and  _105
REMARK   47  A    between atoms: _104  and  _107
REMARK   48  A    between atoms: _111  and  _112
REMARK   49  A    between atoms: _117  and  _119
REMARK   50  A    between atoms: _119  and  _120
REMARK   51  A    between atoms: _119  and  _122
REMARK   52  A    between atoms: _122  and  _123
REMARK   53  A    between atoms: _129  and  _131
REMARK   54  A    between atoms: _131  and  _132
REMARK   55  A    between atoms: _134  and  _136
REMARK   56  A    between atoms: _136  and  _137
REMARK   57  A    between atoms: _136  and  _139
REMARK   58  A    between atoms: _139  and  _140
REMARK   59  A    between atoms: _140  and  _141
REMARK   60  A    between atoms: _144  and  _146
REMARK   61  A    between atoms: _146  and  _147
REMARK   62  A    between atoms: _150  and  _152
REMARK   63  A    between atoms: _152  and  _153
REMARK   64  A    between atoms: _152  and  _155
REMARK   65  A    between atoms: _155  and  _156
REMARK   66  A    between atoms: _161  and  _163
REMARK   67  A    between atoms: _163  and  _164
REMARK   68  A    between atoms: _167  and  _169
REMARK   69  A    between atoms: _169  and  _170
REMARK   70  A    between atoms: _169  and  _172
REMARK   71  A    between atoms: _172  and  _173
REMARK   72  A    between atoms: _173  and  _174
REMARK   73  A    between atoms: _174  and  _175
REMARK   74  A    between atoms: _175  and  _176
REMARK   75  A    between atoms: _180  and  _182
REMARK   76  A    between atoms: _182  and  _183
REMARK   77  A    between atoms: _182  and  _185
REMARK   78  A    between atoms: _185  and  _186
REMARK   79  A    between atoms: _186  and  _187
REMARK   80  A    between atoms: _187  and  _188
REMARK   81  A    between atoms: _188  and  _189
REMARK   82  A    between atoms: _193  and  _195
REMARK   83  A    between atoms: _195  and  _196
REMARK   84  A    between atoms: _195  and  _198
REMARK   85  A    between atoms: _198  and  _199
REMARK   86  A    between atoms: _199  and  _200
REMARK   87  A    between atoms: _200  and  _201
REMARK   88  A    between atoms: _210  and  _212
REMARK   89  A    between atoms: _212  and  _213
REMARK   90  A    between atoms: _212  and  _215
REMARK   91  A    between atoms: _215  and  _216
REMARK   92  A    between atoms: _216  and  _217
REMARK   93  A    between atoms: _220  and  _222
REMARK   94  A    between atoms: _222  and  _223
REMARK   95  A    between atoms: _222  and  _225
REMARK   96  A    between atoms: _228  and  _230
REMARK   97  A    between atoms: _230  and  _231
REMARK   98  A    between atoms: _234  and  _236
REMARK   99  A    between atoms: _236  and  _237
REMARK  100  A    between atoms: _236  and  _239
REMARK  101  A    between atoms: _239  and  _240
REMARK  102  A    between atoms: _250  and  _252
REMARK  103  A    between atoms: _252  and  _253
REMARK  104  A    between atoms: _252  and  _255
REMARK  105  A    between atoms: _258  and  _260
REMARK  106  A    between atoms: _260  and  _261
REMARK  107  A    between atoms: _260  and  _263
REMARK  108  A    between atoms: _263  and  _264
REMARK  109  A    between atoms: _267  and  _269
REMARK  110  A    between atoms: _269  and  _270
REMARK  111  A    between atoms: _269  and  _272
REMARK  112  A    between atoms: _272  and  _273
REMARK  113  A    between atoms: _279  and  _281
REMARK  114  A    between atoms: _281  and  _282
REMARK  115  A    between atoms: _281  and  _284
REMARK  116  A    between atoms: _284  and  _285
REMARK  117  A    between atoms: _285  and  _286
REMARK  118  A    between atoms: _291  and  _293
REMARK  119  A    between atoms: _293  and  _294
REMARK  120  A    between atoms: _293  and  _296
REMARK  121  A    between atoms: _299  and  _301
REMARK  122  A    between atoms: _301  and  _302
REMARK  123  A    between atoms: _301  and  _304
REMARK  124  A    between atoms: _304  and  _305
REMARK  125  A    between atoms: _308  and  _310
REMARK  126  A    between atoms: _310  and  _311
REMARK  127  A    between atoms: _310  and  _313
REMARK  128  A    between atoms: _313  and  _314
REMARK  129  A    between atoms: _317  and  _319
REMARK  130  A    between atoms: _319  and  _320
REMARK  131  A    between atoms: _319  and  _322
REMARK  132  A    between atoms: _322  and  _323
REMARK  133  A    between atoms: _326  and  _328
REMARK  134  A    between atoms: _328  and  _329
REMARK  135  A    between atoms: _328  and  _331
REMARK  136  A    between atoms: _331  and  _332
REMARK  137  A    between atoms: _335  and  _337
REMARK  138  A    between atoms: _337  and  _338
REMARK  139  A    between atoms: _337  and  _340
REMARK  140  A    between atoms: _340  and  _341
REMARK  141  A    between atoms: _341  and  _342
REMARK  142  A    between atoms: _342  and  _343
REMARK  143  A    between atoms: _352  and  _354
REMARK  144  A    between atoms: _354  and  _355
REMARK  145  A    between atoms: _354  and  _357
REMARK  146  A    between atoms: _357  and  _358
REMARK  147  A    between atoms: _361  and  _363
REMARK  148  A    between atoms: _363  and  _364
REMARK  149  A    between atoms: _363  and  _366
REMARK  150  A    between atoms: _366  and  _367
REMARK  151  A    between atoms: _371  and  _372
REMARK  152  A    between atoms: _377  and  _379
REMARK  153  A    between atoms: _379  and  _380
REMARK  154  A    between atoms: _379  and  _382
REMARK  155  A    between atoms: _382  and  _383
REMARK  156  A    between atoms: _388  and  _389
REMARK  157  A    between atoms: _391  and  _393
REMARK  158  A    between atoms: _393  and  _394
REMARK  159  A    between atoms: _393  and  _396
REMARK  160  A    between atoms: _396  and  _397
REMARK  161  A    between atoms: _407  and  _409
REMARK  162  A    between atoms: _409  and  _410
REMARK  163  A    between atoms: _409  and  _412
REMARK  164  A    between atoms: _412  and  _413
REMARK  165  A    between atoms: _419  and  _421
REMARK  166  A    between atoms: _421  and  _422
REMARK  167  A    between atoms: _421  and  _424
REMARK  168  A    between atoms: _424  and  _425
REMARK  169  A    between atoms: _428  and  _430
REMARK  170  A    between atoms: _430  and  _431
REMARK  171  A    between atoms: _430  and  _433
REMARK  172  A    between atoms: _433  and  _434
REMARK  173  A    between atoms: _444  and  _446
REMARK  174  A    between atoms: _446  and  _447
REMARK  175  A    between atoms: _446  and  _449
REMARK  176  A    between atoms: _449  and  _450
REMARK  177  A    between atoms: _450  and  _451
REMARK  178  A    between atoms: _453  and  _455
REMARK  179  A    between atoms: _455  and  _456
REMARK  180  A    between atoms: _455  and  _458
REMARK  181  A    between atoms: _458  and  _459
REMARK  182  A    between atoms: _464  and  _466
REMARK  183  A    between atoms: _466  and  _467
REMARK  184  A    between atoms: _470  and  _471
REMARK  185  A    between atoms: _476  and  _478
REMARK  186  A    between atoms: _478  and  _479
REMARK  187  A    between atoms: _478  and  _481
REMARK  188  A    between atoms: _481  and  _482
REMARK  189  A    between atoms: _492  and  _494
REMARK  190  A    between atoms: _494  and  _495
REMARK  191  A    between atoms: _499  and  _500
REMARK  192  A    between atoms: _505  and  _507
REMARK  193  A    between atoms: _507  and  _508
REMARK  194  A    between atoms: _507  and  _510
REMARK  195  A    between atoms: _510  and  _511
REMARK  196  A    between atoms: _511  and  _512
REMARK  197  A    between atoms: _517  and  _519
REMARK  198  A    between atoms: _519  and  _520
REMARK  199  A    between atoms: _522  and  _524
REMARK  200  A    between atoms: _524  and  _525
REMARK  201  A    between atoms: _527  and  _529
REMARK  202  A    between atoms: _529  and  _530
REMARK  203  A    between atoms: _529  and  _532
REMARK  204  A    between atoms: _532  and  _533
REMARK  205  A    between atoms: _543  and  _545
REMARK  206  A    between atoms: _545  and  _546
REMARK  207  A    between atoms: _545  and  _548
REMARK  208  A    between atoms: _548  and  _549
REMARK  209  A    between atoms: _552  and  _554
REMARK  210  A    between atoms: _554  and  _555
REMARK  211  A    between atoms: _554  and  _557
REMARK  212  A    between atoms: _557  and  _558
REMARK  213  A    between atoms: _561  and  _563
REMARK  214  A    between atoms: _563  and  _564
REMARK  215  A    between atoms: _563  and  _566
REMARK  216  A    between atoms: _566  and  _567
REMARK  217  A    between atoms: _567  and  _568
REMARK  218  A    between atoms: _568  and  _569
REMARK  219  A    between atoms: _578  and  _580
REMARK  220  A    between atoms: _580  and  _581
REMARK  221  A    between atoms: _580  and  _583
REMARK  222  A    between atoms: _583  and  _584
REMARK  223  A    between atoms: _594  and  _596
REMARK  224  A    between atoms: _596  and  _597
REMARK  225  A    between atoms: _600  and  _602
REMARK  226  A    between atoms: _602  and  _603
REMARK  227  A    between atoms: _602  and  _605
REMARK  228  A    between atoms: _605  and  _606
REMARK  229  A    between atoms: _606  and  _607
REMARK  230  A    between atoms: _610  and  _612
REMARK  231  A    between atoms: _612  and  _613
REMARK  232  A    between atoms: _615  and  _617
REMARK  233  A    between atoms: _617  and  _618
REMARK  234  A    between atoms: _617  and  _620
REMARK  235  A    between atoms: _620  and  _621
REMARK  236  A    between atoms: _626  and  _628
REMARK  237  A    between atoms: _628  and  _629
REMARK  238  A    between atoms: _632  and  _634
REMARK  239  A    between atoms: _634  and  _635
REMARK  240  A    between atoms: _634  and  _637
REMARK  241  A    between atoms: _637  and  _638
REMARK  242  A    between atoms: _641  and  _643
REMARK  243  A    between atoms: _643  and  _644
REMARK  244  A    between atoms: _643  and  _646
REMARK  245  A    between atoms: _646  and  _647
REMARK  246  A    between atoms: _653  and  _655
REMARK  247  A    between atoms: _655  and  _656
REMARK  248  A    between atoms: _655  and  _658
REMARK  249  A    between atoms: _658  and  _659
REMARK  250  A    between atoms: _659  and  _660
REMARK  251  A    between atoms: _663  and  _665
REMARK  252  A    between atoms: _665  and  _666
REMARK  253  A    between atoms: _665  and  _668
REMARK  254  A    between atoms: _668  and  _669
REMARK  255  A    between atoms: _669  and  _670
REMARK  256  A    between atoms: _670  and  _671
REMARK                            x       y       z     vdW  Elec       q    Type
REMARK                         _______ _______ _______ _____ _____    ______ ____
ROOT
ATOM      1  O   HOH     1      -6.122  -2.423   8.571  0.00  0.00    +0.000 OA
ENDROOT
TORSDOF 0
REMARK  Name = ../refined-set-2016/3k00/3k00_pocket.pdb
REMARK  256 active torsions:
REMARK  status: ('A' for Active; 'I' for Inactive)
REMARK    1  A    between atoms: _1  and  _3
REMARK    2  A    between atoms: _3  and  _4
REMARK    3  A    between atoms: _3  and  _6
REMARK    4  A    between atoms: _6  and  _7
REMARK    5  A    between atoms: _10  and  _12
REMARK    6  A    between atoms: _12  and  _13
REMARK    7  A    between atoms: _12  and  _15
REMARK    8  A    between atoms: _15  and  _16
REMARK    9  A    between atoms: _19  and  _21
REMARK   10  A    between atoms: _21  and  _22
REMARK   11  A    between atoms: _21  and  _24
REMARK   12  A    between atoms: _24  and  _25
REMARK   13  A    between atoms: _27  and  _29
REMARK   14  A    between atoms: _29  and  _30
REMARK   15  A    between atoms: _29  and  _32
REMARK   16  A    between atoms: _32  and  _33
REMARK   17  A    between atoms: _38  and  _40
REMARK   18  A    between atoms: _40  and  _41
REMARK   19  A    between atoms: _40  and  _43
REMARK   20  A    between atoms: _43  and  _44
REMARK   21  A    between atoms: _44  and  _45
REMARK   22  A    between atoms: _48  and  _50
REMARK   23  A    between atoms: _50  and  _51
REMARK   24  A    between atoms: _54  and  _56
REMARK   25  A    between atoms: _56  and  _57
REMARK   26  A    between atoms: _56  and  _59
REMARK   27  A    between atoms: _59  and  _60
REMARK   28  A    between atoms: _60  and  _61
REMARK   29  A    between atoms: _64  and  _66
REMARK   30  A    between atoms: _66  and  _67
REMARK   31  A    between atoms: _66  and  _69
REMARK   32  A    between atoms: _69  and  _70
REMARK   33  A    between atoms: _70  and  _71
REMARK   34  A    between atoms: _71  and  _72
REMARK   35  A    between atoms: _72  and  _73
REMARK   36  A    between atoms: _77  and  _79
REMARK   37  A    between atoms: _79  and  _80
REMARK   38  A    between atoms: _79  and  _82
REMARK   39  A    between atoms: _82  and  _83
REMARK   40  A    between atoms: _88  and  _89
REMARK   41  A    between atoms: _91  and  _93
REMARK   42  A    between atoms: _93  and  _94
REMARK   43  A    between atoms: _93  and  _96
REMARK   44  A    between atoms: _96  and  _97
REMARK   45  A    between atoms: _102  and  _104
REMARK   46  A    between atoms: _104  and  _105
REMARK   47  A    between atoms: _104  and  _107
REMARK   48  A    between atoms: _111  and  _112
REMARK   49  A    between atoms: _117  and  _119
REMARK   50  A    between atoms: _119  and  _120
REMARK   51  A    between atoms: _119  and  _122
REMARK   52  A    between atoms: _122  and  _123
REMARK   53  A    between atoms: _129  and  _131
REMARK   54  A    between atoms: _131  and  _132
REMARK   55  A    between atoms: _134  and  _136
REMARK   56  A    between atoms: _136  and  _137
REMARK   57  A    between atoms: _136  and  _139
REMARK   58  A    between atoms: _139  and  _140
REMARK   59  A    between atoms: _140  and  _141
REMARK   60  A    between atoms: _144  and  _146
REMARK   61  A    between atoms: _146  and  _147
REMARK   62  A    between atoms: _150  and  _152
REMARK   63  A    between atoms: _152  and  _153
REMARK   64  A    between atoms: _152  and  _155
REMARK   65  A    between atoms: _155  and  _156
REMARK   66  A    between atoms: _161  and  _163
REMARK   67  A    between atoms: _163  and  _164
REMARK   68  A    between atoms: _167  and  _169
REMARK   69  A    between atoms: _169  and  _170
REMARK   70  A    between atoms: _169  and  _172
REMARK   71  A    between atoms: _172  and  _173
REMARK   72  A    between atoms: _173  and  _174
REMARK   73  A    between atoms: _174  and  _175
REMARK   74  A    between atoms: _175  and  _176
REMARK   75  A    between atoms: _180  and  _182
REMARK   76  A    between atoms: _182  and  _183
REMARK   77  A    between atoms: _182  and  _185
REMARK   78  A    between atoms: _185  and  _186
REMARK   79  A    between atoms: _186  and  _187
REMARK   80  A    between atoms: _187  and  _188
REMARK   81  A    between atoms: _188  and  _189
REMARK   82  A    between atoms: _193  and  _195
REMARK   83  A    between atoms: _195  and  _196
REMARK   84  A    between atoms: _195  and  _198
REMARK   85  A    between atoms: _198  and  _199
REMARK   86  A    between atoms: _199  and  _200
REMARK   87  A    between atoms: _200  and  _201
REMARK   88  A    between atoms: _210  and  _212
REMARK   89  A    between atoms: _212  and  _213
REMARK   90  A    between atoms: _212  and  _215
REMARK   91  A    between atoms: _215  and  _216
REMARK   92  A    between atoms: _216  and  _217
REMARK   93  A    between atoms: _220  and  _222
REMARK   94  A    between atoms: _222  and  _223
REMARK   95  A    between atoms: _222  and  _225
REMARK   96  A    between atoms: _228  and  _230
REMARK   97  A    between atoms: _230  and  _231
REMARK   98  A    between atoms: _234  and  _236
REMARK   99  A    between atoms: _236  and  _237
REMARK  100  A    between atoms: _236  and  _239
REMARK  101  A    between atoms: _239  and  _240
REMARK  102  A    between atoms: _250  and  _252
REMARK  103  A    between atoms: _252  and  _253
REMARK  104  A    between atoms: _252  and  _255
REMARK  105  A    between atoms: _258  and  _260
REMARK  106  A    between atoms: _260  and  _261
REMARK  107  A    between atoms: _260  and  _263
REMARK  108  A    between atoms: _263  and  _264
REMARK  109  A    between atoms: _267  and  _269
REMARK  110  A    between atoms: _269  and  _270
REMARK  111  A    between atoms: _269  and  _272
REMARK  112  A    between atoms: _272  and  _273
REMARK  113  A    between atoms: _279  and  _281
REMARK  114  A    between atoms: _281  and  _282
REMARK  115  A    between atoms: _281  and  _284
REMARK  116  A    between atoms: _284  and  _285
REMARK  117  A    between atoms: _285  and  _286
REMARK  118  A    between atoms: _291  and  _293
REMARK  119  A    between atoms: _293  and  _294
REMARK  120  A    between atoms: _293  and  _296
REMARK  121  A    between atoms: _299  and  _301
REMARK  122  A    between atoms: _301  and  _302
REMARK  123  A    between atoms: _301  and  _304
REMARK  124  A    between atoms: _304  and  _305
REMARK  125  A    between atoms: _308  and  _310
REMARK  126  A    between atoms: _310  and  _311
REMARK  127  A    between atoms: _310  and  _313
REMARK  128  A    between atoms: _313  and  _314
REMARK  129  A    between atoms: _317  and  _319
REMARK  130  A    between atoms: _319  and  _320
REMARK  131  A    between atoms: _319  and  _322
REMARK  132  A    between atoms: _322  and  _323
REMARK  133  A    between atoms: _326  and  _328
REMARK  134  A    between atoms: _328  and  _329
REMARK  135  A    between atoms: _328  and  _331
REMARK  136  A    between atoms: _331  and  _332
REMARK  137  A    between atoms: _335  and  _337
REMARK  138  A    between atoms: _337  and  _338
REMARK  139  A    between atoms: _337  and  _340
REMARK  140  A    between atoms: _340  and  _341
REMARK  141  A    between atoms: _341  and  _342
REMARK  142  A    between atoms: _342  and  _343
REMARK  143  A    between atoms: _352  and  _354
REMARK  144  A    between atoms: _354  and  _355
REMARK  145  A    between atoms: _354  and  _357
REMARK  146  A    between atoms: _357  and  _358
REMARK  147  A    between atoms: _361  and  _363
REMARK  148  A    between atoms: _363  and  _364
REMARK  149  A    between atoms: _363  and  _366
REMARK  150  A    between atoms: _366  and  _367
REMARK  151  A    between atoms: _371  and  _372
REMARK  152  A    between atoms: _377  and  _379
REMARK  153  A    between atoms: _379  and  _380
REMARK  154  A    between atoms: _379  and  _382
REMARK  155  A    between atoms: _382  and  _383
REMARK  156  A    between atoms: _388  and  _389
REMARK  157  A    between atoms: _391  and  _393
REMARK  158  A    between atoms: _393  and  _394
REMARK  159  A    between atoms: _393  and  _396
REMARK  160  A    between atoms: _396  and  _397
REMARK  161  A    between atoms: _407  and  _409
REMARK  162  A    between atoms: _409  and  _410
REMARK  163  A    between atoms: _409  and  _412
REMARK  164  A    between atoms: _412  and  _413
REMARK  165  A    between atoms: _419  and  _421
REMARK  166  A    between atoms: _421  and  _422
REMARK  167  A    between atoms: _421  and  _424
REMARK  168  A    between atoms: _424  and  _425
REMARK  169  A    between atoms: _428  and  _430
REMARK  170  A    between atoms: _430  and  _431
REMARK  171  A    between atoms: _430  and  _433
REMARK  172  A    between atoms: _433  and  _434
REMARK  173  A    between atoms: _444  and  _446
REMARK  174  A    between atoms: _446  and  _447
REMARK  175  A    between atoms: _446  and  _449
REMARK  176  A    between atoms: _449  and  _450
REMARK  177  A    between atoms: _450  and  _451
REMARK  178  A    between atoms: _453  and  _455
REMARK  179  A    between atoms: _455  and  _456
REMARK  180  A    between atoms: _455  and  _458
REMARK  181  A    between atoms: _458  and  _459
REMARK  182  A    between atoms: _464  and  _466
REMARK  183  A    between atoms: _466  and  _467
REMARK  184  A    between atoms: _470  and  _471
REMARK  185  A    between atoms: _476  and  _478
REMARK  186  A    between atoms: _478  and  _479
REMARK  187  A    between atoms: _478  and  _481
REMARK  188  A    between atoms: _481  and  _482
REMARK  189  A    between atoms: _492  and  _494
REMARK  190  A    between atoms: _494  and  _495
REMARK  191  A    between atoms: _499  and  _500
REMARK  192  A    between atoms: _505  and  _507
REMARK  193  A    between atoms: _507  and  _508
REMARK  194  A    between atoms: _507  and  _510
REMARK  195  A    between atoms: _510  and  _511
REMARK  196  A    between atoms: _511  and  _512
REMARK  197  A    between atoms: _517  and  _519
REMARK  198  A    between atoms: _519  and  _520
REMARK  199  A    between atoms: _522  and  _524
REMARK  200  A    between atoms: _524  and  _525
REMARK  201  A    between atoms: _527  and  _529
REMARK  202  A    between atoms: _529  and  _530
REMARK  203  A    between atoms: _529  and  _532
REMARK  204  A    between atoms: _532  and  _533
REMARK  205  A    between atoms: _543  and  _545
REMARK  206  A    between atoms: _545  and  _546
REMARK  207  A    between atoms: _545  and  _548
REMARK  208  A    between atoms: _548  and  _549
REMARK  209  A    between atoms: _552  and  _554
REMARK  210  A    between atoms: _554  and  _555
REMARK  211  A    between atoms: _554  and  _557
REMARK  212  A    between atoms: _557  and  _558
REMARK  213  A    between atoms: _561  and  _563
REMARK  214  A    between atoms: _563  and  _564
REMARK  215  A    between atoms: _563  and  _566
REMARK  216  A    between atoms: _566  and  _567
REMARK  217  A    between atoms: _567  and  _568
REMARK  218  A    between atoms: _568  and  _569
REMARK  219  A    between atoms: _578  and  _580
REMARK  220  A    between atoms: _580  and  _581
REMARK  221  A    between atoms: _580  and  _583
REMARK  222  A    between atoms: _583  and  _584
REMARK  223  A    between atoms: _594  and  _596
REMARK  224  A    between atoms: _596  and  _597
REMARK  225  A    between atoms: _600  and  _602
REMARK  226  A    between atoms: _602  and  _603
REMARK  227  A    between atoms: _602  and  _605
REMARK  228  A    between atoms: _605  and  _606
REMARK  229  A    between atoms: _606  and  _607
REMARK  230  A    between atoms: _610  and  _612
REMARK  231  A    between atoms: _612  and  _613
REMARK  232  A    between atoms: _615  and  _617
REMARK  233  A    between atoms: _617  and  _618
REMARK  234  A    between atoms: _617  and  _620
REMARK  235  A    between atoms: _620  and  _621
REMARK  236  A    between atoms: _626  and  _628
REMARK  237  A    between atoms: _628  and  _629
REMARK  238  A    between atoms: _632  and  _634
REMARK  239  A    between atoms: _634  and  _635
REMARK  240  A    between atoms: _634  and  _637
REMARK  241  A    between atoms: _637  and  _638
REMARK  242  A    between atoms: _641  and  _643
REMARK  243  A    between atoms: _643  and  _644
REMARK  244  A    between atoms: _643  and  _646
REMARK  245  A    between atoms: _646  and  _647
REMARK  246  A    between atoms: _653  and  _655
REMARK  247  A    between atoms: _655  and  _656
REMARK  248  A    between atoms: _655  and  _658
REMARK  249  A    between atoms: _658  and  _659
REMARK  250  A    between atoms: _659  and  _660
REMARK  251  A    between atoms: _663  and  _665
REMARK  252  A    between atoms: _665  and  _666
REMARK  253  A    between atoms: _665  and  _668
REMARK  254  A    between atoms: _668  and  _669
REMARK  255  A    between atoms: _669  and  _670
REMARK  256  A    between atoms: _670  and  _671
REMARK                            x       y       z     vdW  Elec       q    Type
REMARK                         _______ _______ _______ _____ _____    ______ ____
ROOT
ATOM      1  O   HOH     1      -3.404 -17.780  20.392  0.00  0.00    +0.000 OA
ENDROOT
TORSDOF 0
