REMARK  Name = ../refined-set-2016/4ovg/4ovg_pocket.pdb
REMARK  108 active torsions:
REMARK  status: ('A' for Active; 'I' for Inactive)
REMARK    1  A    between atoms: _1  and  _3
REMARK    2  A    between atoms: _3  and  _4
REMARK    3  A    between atoms: _3  and  _6
REMARK    4  A    between atoms: _6  and  _7
REMARK    5  A    between atoms: _9  and  _11
REMARK    6  A    between atoms: _11  and  _12
REMARK    7  A    between atoms: _11  and  _14
REMARK    8  A    between atoms: _14  and  _15
REMARK    9  A    between atoms: _18  and  _20
REMARK   10  A    between atoms: _20  and  _21
REMARK   11  A    between atoms: _20  and  _23
REMARK   12  A    between atoms: _23  and  _24
REMARK   13  A    between atoms: _24  and  _25
REMARK   14  A    between atoms: _25  and  _26
REMARK   15  A    between atoms: _35  and  _37
REMARK   16  A    between atoms: _37  and  _38
REMARK   17  A    between atoms: _37  and  _40
REMARK   18  A    between atoms: _40  and  _41
REMARK   19  A    between atoms: _46  and  _47
REMARK   20  A    between atoms: _49  and  _51
REMARK   21  A    between atoms: _51  and  _52
REMARK   22  A    between atoms: _51  and  _54
REMARK   23  A    between atoms: _54  and  _55
REMARK   24  A    between atoms: _58  and  _60
REMARK   25  A    between atoms: _60  and  _61
REMARK   26  A    between atoms: _64  and  _66
REMARK   27  A    between atoms: _66  and  _67
REMARK   28  A    between atoms: _66  and  _69
REMARK   29  A    between atoms: _69  and  _70
REMARK   30  A    between atoms: _73  and  _75
REMARK   31  A    between atoms: _75  and  _76
REMARK   32  A    between atoms: _75  and  _78
REMARK   33  A    between atoms: _78  and  _79
REMARK   34  A    between atoms: _82  and  _84
REMARK   35  A    between atoms: _84  and  _85
REMARK   36  A    between atoms: _87  and  _89
REMARK   37  A    between atoms: _89  and  _90
REMARK   38  A    between atoms: _89  and  _92
REMARK   39  A    between atoms: _92  and  _93
REMARK   40  A    between atoms: _98  and  _100
REMARK   41  A    between atoms: _100  and  _101
REMARK   42  A    between atoms: _100  and  _103
REMARK   43  A    between atoms: _103  and  _104
REMARK   44  A    between atoms: _104  and  _105
REMARK   45  A    between atoms: _105  and  _106
REMARK   46  A    between atoms: _115  and  _117
REMARK   47  A    between atoms: _117  and  _118
REMARK   48  A    between atoms: _117  and  _120
REMARK   49  A    between atoms: _120  and  _121
REMARK   50  A    between atoms: _124  and  _126
REMARK   51  A    between atoms: _126  and  _127
REMARK   52  A    between atoms: _130  and  _132
REMARK   53  A    between atoms: _132  and  _133
REMARK   54  A    between atoms: _132  and  _135
REMARK   55  A    between atoms: _135  and  _136
REMARK   56  A    between atoms: _136  and  _137
REMARK   57  A    between atoms: _137  and  _138
REMARK   58  A    between atoms: _147  and  _149
REMARK   59  A    between atoms: _149  and  _150
REMARK   60  A    between atoms: _149  and  _152
REMARK   61  A    between atoms: _152  and  _153
REMARK   62  A    between atoms: _160  and  _161
REMARK   63  A    between atoms: _166  and  _168
REMARK   64  A    between atoms: _168  and  _169
REMARK   65  A    between atoms: _168  and  _171
REMARK   66  A    between atoms: _171  and  _172
REMARK   67  A    between atoms: _175  and  _177
REMARK   68  A    between atoms: _177  and  _178
REMARK   69  A    between atoms: _177  and  _180
REMARK   70  A    between atoms: _180  and  _181
REMARK   71  A    between atoms: _186  and  _187
REMARK   72  A    between atoms: _189  and  _191
REMARK   73  A    between atoms: _191  and  _192
REMARK   74  A    between atoms: _191  and  _194
REMARK   75  A    between atoms: _194  and  _195
REMARK   76  A    between atoms: _195  and  _196
REMARK   77  A    between atoms: _196  and  _197
REMARK   78  A    between atoms: _206  and  _208
REMARK   79  A    between atoms: _208  and  _209
REMARK   80  A    between atoms: _208  and  _211
REMARK   81  A    between atoms: _214  and  _216
REMARK   82  A    between atoms: _216  and  _217
REMARK   83  A    between atoms: _216  and  _219
REMARK   84  A    between atoms: _219  and  _220
REMARK   85  A    between atoms: _223  and  _225
REMARK   86  A    between atoms: _225  and  _226
REMARK   87  A    between atoms: _225  and  _228
REMARK   88  A    between atoms: _228  and  _229
REMARK   89  A    between atoms: _231  and  _233
REMARK   90  A    between atoms: _233  and  _234
REMARK   91  A    between atoms: _233  and  _236
REMARK   92  A    between atoms: _239  and  _241
REMARK   93  A    between atoms: _241  and  _242
REMARK   94  A    between atoms: _241  and  _244
REMARK   95  A    between atoms: _244  and  _245
REMARK   96  A    between atoms: _250  and  _251
REMARK   97  A    between atoms: _253  and  _255
REMARK   98  A    between atoms: _255  and  _256
REMARK   99  A    between atoms: _255  and  _258
REMARK  100  A    between atoms: _261  and  _263
REMARK  101  A    between atoms: _263  and  _264
REMARK  102  A    between atoms: _263  and  _266
REMARK  103  A    between atoms: _269  and  _271
REMARK  104  A    between atoms: _271  and  _272
REMARK  105  A    between atoms: _271  and  _274
REMARK  106  A    between atoms: _274  and  _275
REMARK  107  A    between atoms: _275  and  _276
REMARK  108  A    between atoms: _279  and  _280
REMARK                            x       y       z     vdW  Elec       q    Type
REMARK                         _______ _______ _______ _____ _____    ______ ____
ROOT
ATOM      1  CA  SER A   1       7.284  -0.203  -0.604  0.00  0.00    +0.163 C 
ENDROOT
BRANCH   1   2
ATOM      2  N   SER A   1       7.260   0.585   0.635  0.00  0.00    -0.237 NA
ATOM      3  H   SER A   1       7.940   1.360   0.773  0.00  0.00    +0.142 HD
ENDBRANCH   1   2
BRANCH   1   4
ATOM      4  CB  SER A   1       8.230  -1.402  -0.545  0.00  0.00    +0.227 C 
ATOM      5  OG  SER A   1       8.291  -2.151  -1.502  0.00  0.00    -0.287 OA
ENDBRANCH   1   4
BRANCH   1   6
ATOM      6  C   SER A   1       7.624   0.663  -1.816  0.00  0.00    +0.162 C 
BRANCH   6   7
ATOM      7  O   SER A   1       6.569   1.567  -2.052  0.00  0.00    -0.380 OA
ATOM      8  H   SER A   1       6.787   2.129  -2.837  0.00  0.00    +0.211 HD
ENDBRANCH   6   7
ENDBRANCH   1   6
TORSDOF 4
REMARK  Name = ../refined-set-2016/4ovg/4ovg_pocket.pdb
REMARK  108 active torsions:
REMARK  status: ('A' for Active; 'I' for Inactive)
REMARK    1  A    between atoms: _1  and  _3
REMARK    2  A    between atoms: _3  and  _4
REMARK    3  A    between atoms: _3  and  _6
REMARK    4  A    between atoms: _6  and  _7
REMARK    5  A    between atoms: _9  and  _11
REMARK    6  A    between atoms: _11  and  _12
REMARK    7  A    between atoms: _11  and  _14
REMARK    8  A    between atoms: _14  and  _15
REMARK    9  A    between atoms: _18  and  _20
REMARK   10  A    between atoms: _20  and  _21
REMARK   11  A    between atoms: _20  and  _23
REMARK   12  A    between atoms: _23  and  _24
REMARK   13  A    between atoms: _24  and  _25
REMARK   14  A    between atoms: _25  and  _26
REMARK   15  A    between atoms: _35  and  _37
REMARK   16  A    between atoms: _37  and  _38
REMARK   17  A    between atoms: _37  and  _40
REMARK   18  A    between atoms: _40  and  _41
REMARK   19  A    between atoms: _46  and  _47
REMARK   20  A    between atoms: _49  and  _51
REMARK   21  A    between atoms: _51  and  _52
REMARK   22  A    between atoms: _51  and  _54
REMARK   23  A    between atoms: _54  and  _55
REMARK   24  A    between atoms: _58  and  _60
REMARK   25  A    between atoms: _60  and  _61
REMARK   26  A    between atoms: _64  and  _66
REMARK   27  A    between atoms: _66  and  _67
REMARK   28  A    between atoms: _66  and  _69
REMARK   29  A    between atoms: _69  and  _70
REMARK   30  A    between atoms: _73  and  _75
REMARK   31  A    between atoms: _75  and  _76
REMARK   32  A    between atoms: _75  and  _78
REMARK   33  A    between atoms: _78  and  _79
REMARK   34  A    between atoms: _82  and  _84
REMARK   35  A    between atoms: _84  and  _85
REMARK   36  A    between atoms: _87  and  _89
REMARK   37  A    between atoms: _89  and  _90
REMARK   38  A    between atoms: _89  and  _92
REMARK   39  A    between atoms: _92  and  _93
REMARK   40  A    between atoms: _98  and  _100
REMARK   41  A    between atoms: _100  and  _101
REMARK   42  A    between atoms: _100  and  _103
REMARK   43  A    between atoms: _103  and  _104
REMARK   44  A    between atoms: _104  and  _105
REMARK   45  A    between atoms: _105  and  _106
REMARK   46  A    between atoms: _115  and  _117
REMARK   47  A    between atoms: _117  and  _118
REMARK   48  A    between atoms: _117  and  _120
REMARK   49  A    between atoms: _120  and  _121
REMARK   50  A    between atoms: _124  and  _126
REMARK   51  A    between atoms: _126  and  _127
REMARK   52  A    between atoms: _130  and  _132
REMARK   53  A    between atoms: _132  and  _133
REMARK   54  A    between atoms: _132  and  _135
REMARK   55  A    between atoms: _135  and  _136
REMARK   56  A    between atoms: _136  and  _137
REMARK   57  A    between atoms: _137  and  _138
REMARK   58  A    between atoms: _147  and  _149
REMARK   59  A    between atoms: _149  and  _150
REMARK   60  A    between atoms: _149  and  _152
REMARK   61  A    between atoms: _152  and  _153
REMARK   62  A    between atoms: _160  and  _161
REMARK   63  A    between atoms: _166  and  _168
REMARK   64  A    between atoms: _168  and  _169
REMARK   65  A    between atoms: _168  and  _171
REMARK   66  A    between atoms: _171  and  _172
REMARK   67  A    between atoms: _175  and  _177
REMARK   68  A    between atoms: _177  and  _178
REMARK   69  A    between atoms: _177  and  _180
REMARK   70  A    between atoms: _180  and  _181
REMARK   71  A    between atoms: _186  and  _187
REMARK   72  A    between atoms: _189  and  _191
REMARK   73  A    between atoms: _191  and  _192
REMARK   74  A    between atoms: _191  and  _194
REMARK   75  A    between atoms: _194  and  _195
REMARK   76  A    between atoms: _195  and  _196
REMARK   77  A    between atoms: _196  and  _197
REMARK   78  A    between atoms: _206  and  _208
REMARK   79  A    between atoms: _208  and  _209
REMARK   80  A    between atoms: _208  and  _211
REMARK   81  A    between atoms: _214  and  _216
REMARK   82  A    between atoms: _216  and  _217
REMARK   83  A    between atoms: _216  and  _219
REMARK   84  A    between atoms: _219  and  _220
REMARK   85  A    between atoms: _223  and  _225
REMARK   86  A    between atoms: _225  and  _226
REMARK   87  A    between atoms: _225  and  _228
REMARK   88  A    between atoms: _228  and  _229
REMARK   89  A    between atoms: _231  and  _233
REMARK   90  A    between atoms: _233  and  _234
REMARK   91  A    between atoms: _233  and  _236
REMARK   92  A    between atoms: _239  and  _241
REMARK   93  A    between atoms: _241  and  _242
REMARK   94  A    between atoms: _241  and  _244
REMARK   95  A    between atoms: _244  and  _245
REMARK   96  A    between atoms: _250  and  _251
REMARK   97  A    between atoms: _253  and  _255
REMARK   98  A    between atoms: _255  and  _256
REMARK   99  A    between atoms: _255  and  _258
REMARK  100  A    between atoms: _261  and  _263
REMARK  101  A    between atoms: _263  and  _264
REMARK  102  A    between atoms: _263  and  _266
REMARK  103  A    between atoms: _269  and  _271
REMARK  104  A    between atoms: _271  and  _272
REMARK  105  A    between atoms: _271  and  _274
REMARK  106  A    between atoms: _274  and  _275
REMARK  107  A    between atoms: _275  and  _276
REMARK  108  A    between atoms: _279  and  _280
REMARK                            x       y       z     vdW  Elec       q    Type
REMARK                         _______ _______ _______ _____ _____    ______ ____
ROOT
ATOM      1  CA  ASP A   1       9.550 -12.278  -0.484  0.00  0.00    +0.144 C 
ENDROOT
BRANCH   1   2
ATOM      2  N   ASP A   1       9.403 -11.765   0.875  0.00  0.00    -0.239 NA
ATOM      3  H   ASP A   1       9.534 -10.747   1.042  0.00  0.00    +0.142 HD
ENDBRANCH   1   2
BRANCH   1   4
ATOM      4  C   ASP A   1      10.695 -13.293  -0.540  0.00  0.00    +0.225 C 
ATOM      5  O   ASP A   1      11.713 -13.171   0.179  0.00  0.00    -0.287 OA
ENDBRANCH   1   4
BRANCH   1   6
ATOM      6  CB  ASP A   1       9.765 -11.115  -1.488  0.00  0.00    +0.139 C 
BRANCH   6   7
ATOM      7  CG  ASP A   1       9.334 -11.464  -2.925  0.00  0.00    +0.367 C 
ATOM      8  OD2 ASP A   1       8.244 -11.021  -3.386  0.00  0.00    -0.246 OA
ATOM      9  OD1 ASP A   1      10.089 -12.175  -3.605  0.00  0.00    -0.246 OA
ENDBRANCH   6   7
ENDBRANCH   1   6
TORSDOF 4
REMARK  Name = ../refined-set-2016/4ovg/4ovg_pocket.pdb
REMARK  108 active torsions:
REMARK  status: ('A' for Active; 'I' for Inactive)
REMARK    1  A    between atoms: _1  and  _3
REMARK    2  A    between atoms: _3  and  _4
REMARK    3  A    between atoms: _3  and  _6
REMARK    4  A    between atoms: _6  and  _7
REMARK    5  A    between atoms: _9  and  _11
REMARK    6  A    between atoms: _11  and  _12
REMARK    7  A    between atoms: _11  and  _14
REMARK    8  A    between atoms: _14  and  _15
REMARK    9  A    between atoms: _18  and  _20
REMARK   10  A    between atoms: _20  and  _21
REMARK   11  A    between atoms: _20  and  _23
REMARK   12  A    between atoms: _23  and  _24
REMARK   13  A    between atoms: _24  and  _25
REMARK   14  A    between atoms: _25  and  _26
REMARK   15  A    between atoms: _35  and  _37
REMARK   16  A    between atoms: _37  and  _38
REMARK   17  A    between atoms: _37  and  _40
REMARK   18  A    between atoms: _40  and  _41
REMARK   19  A    between atoms: _46  and  _47
REMARK   20  A    between atoms: _49  and  _51
REMARK   21  A    between atoms: _51  and  _52
REMARK   22  A    between atoms: _51  and  _54
REMARK   23  A    between atoms: _54  and  _55
REMARK   24  A    between atoms: _58  and  _60
REMARK   25  A    between atoms: _60  and  _61
REMARK   26  A    between atoms: _64  and  _66
REMARK   27  A    between atoms: _66  and  _67
REMARK   28  A    between atoms: _66  and  _69
REMARK   29  A    between atoms: _69  and  _70
REMARK   30  A    between atoms: _73  and  _75
REMARK   31  A    between atoms: _75  and  _76
REMARK   32  A    between atoms: _75  and  _78
REMARK   33  A    between atoms: _78  and  _79
REMARK   34  A    between atoms: _82  and  _84
REMARK   35  A    between atoms: _84  and  _85
REMARK   36  A    between atoms: _87  and  _89
REMARK   37  A    between atoms: _89  and  _90
REMARK   38  A    between atoms: _89  and  _92
REMARK   39  A    between atoms: _92  and  _93
REMARK   40  A    between atoms: _98  and  _100
REMARK   41  A    between atoms: _100  and  _101
REMARK   42  A    between atoms: _100  and  _103
REMARK   43  A    between atoms: _103  and  _104
REMARK   44  A    between atoms: _104  and  _105
REMARK   45  A    between atoms: _105  and  _106
REMARK   46  A    between atoms: _115  and  _117
REMARK   47  A    between atoms: _117  and  _118
REMARK   48  A    between atoms: _117  and  _120
REMARK   49  A    between atoms: _120  and  _121
REMARK   50  A    between atoms: _124  and  _126
REMARK   51  A    between atoms: _126  and  _127
REMARK   52  A    between atoms: _130  and  _132
REMARK   53  A    between atoms: _132  and  _133
REMARK   54  A    between atoms: _132  and  _135
REMARK   55  A    between atoms: _135  and  _136
REMARK   56  A    between atoms: _136  and  _137
REMARK   57  A    between atoms: _137  and  _138
REMARK   58  A    between atoms: _147  and  _149
REMARK   59  A    between atoms: _149  and  _150
REMARK   60  A    between atoms: _149  and  _152
REMARK   61  A    between atoms: _152  and  _153
REMARK   62  A    between atoms: _160  and  _161
REMARK   63  A    between atoms: _166  and  _168
REMARK   64  A    between atoms: _168  and  _169
REMARK   65  A    between atoms: _168  and  _171
REMARK   66  A    between atoms: _171  and  _172
REMARK   67  A    between atoms: _175  and  _177
REMARK   68  A    between atoms: _177  and  _178
REMARK   69  A    between atoms: _177  and  _180
REMARK   70  A    between atoms: _180  and  _181
REMARK   71  A    between atoms: _186  and  _187
REMARK   72  A    between atoms: _189  and  _191
REMARK   73  A    between atoms: _191  and  _192
REMARK   74  A    between atoms: _191  and  _194
REMARK   75  A    between atoms: _194  and  _195
REMARK   76  A    between atoms: _195  and  _196
REMARK   77  A    between atoms: _196  and  _197
REMARK   78  A    between atoms: _206  and  _208
REMARK   79  A    between atoms: _208  and  _209
REMARK   80  A    between atoms: _208  and  _211
REMARK   81  A    between atoms: _214  and  _216
REMARK   82  A    between atoms: _216  and  _217
REMARK   83  A    between atoms: _216  and  _219
REMARK   84  A    between atoms: _219  and  _220
REMARK   85  A    between atoms: _223  and  _225
REMARK   86  A    between atoms: _225  and  _226
REMARK   87  A    between atoms: _225  and  _228
REMARK   88  A    between atoms: _228  and  _229
REMARK   89  A    between atoms: _231  and  _233
REMARK   90  A    between atoms: _233  and  _234
REMARK   91  A    between atoms: _233  and  _236
REMARK   92  A    between atoms: _239  and  _241
REMARK   93  A    between atoms: _241  and  _242
REMARK   94  A    between atoms: _241  and  _244
REMARK   95  A    between atoms: _244  and  _245
REMARK   96  A    between atoms: _250  and  _251
REMARK   97  A    between atoms: _253  and  _255
REMARK   98  A    between atoms: _255  and  _256
REMARK   99  A    between atoms: _255  and  _258
REMARK  100  A    between atoms: _261  and  _263
REMARK  101  A    between atoms: _263  and  _264
REMARK  102  A    between atoms: _263  and  _266
REMARK  103  A    between atoms: _269  and  _271
REMARK  104  A    between atoms: _271  and  _272
REMARK  105  A    between atoms: _271  and  _274
REMARK  106  A    between atoms: _274  and  _275
REMARK  107  A    between atoms: _275  and  _276
REMARK  108  A    between atoms: _279  and  _280
REMARK                            x       y       z     vdW  Elec       q    Type
REMARK                         _______ _______ _______ _____ _____    ______ ____
ROOT
ATOM      1  NE  ARG A   1      10.882 -11.337  -7.052  0.00  0.00    -0.265 N 
ATOM      2  CZ  ARG A   1       9.734 -10.727  -7.309  0.00  0.00    +0.342 C 
ATOM      3  NH2 ARG A   1       8.736 -10.683  -6.430  0.00  0.00    -0.292 N 
ATOM      4 HH21 ARG A   1       8.841 -11.138  -5.501  0.00  0.00    +0.255 HD
ATOM      5 HH22 ARG A   1       7.851 -10.193  -6.672  0.00  0.00    +0.255 HD
ATOM      6  NH1 ARG A   1       9.619 -10.139  -8.474  0.00  0.00    -0.292 N 
ATOM      7 HH11 ARG A   1       8.737  -9.647  -8.723  0.00  0.00    +0.255 HD
ATOM      8 HH12 ARG A   1      10.409 -10.165  -9.150  0.00  0.00    +0.255 HD
ATOM      9  HE  ARG A   1      11.627 -11.290  -7.777  0.00  0.00    +0.259 HD
ENDROOT
BRANCH   1  10
ATOM     10  CD  ARG A   1      11.167 -12.047  -5.864  0.00  0.00    +0.174 C 
BRANCH  10  11
ATOM     11  CG  ARG A   1      12.608 -12.501  -5.819  0.00  0.00    +0.045 C 
BRANCH  11  12
ATOM     12  CB  ARG A   1      13.262 -11.774  -4.680  0.00  0.00    +0.029 C 
BRANCH  12  13
ATOM     13  CA  ARG A   1      13.633 -12.653  -3.498  0.00  0.00    +0.133 C 
BRANCH  13  14
ATOM     14  N   ARG A   1      12.508 -13.470  -3.048  0.00  0.00    -0.239 NA
ATOM     15  H   ARG A   1      11.531 -13.153  -3.209  0.00  0.00    +0.142 HD
ENDBRANCH  13  14
BRANCH  13  16
ATOM     16  C   ARG A   1      14.104 -11.794  -2.327  0.00  0.00    +0.224 C 
ATOM     17  O   ARG A   1      13.572 -10.708  -2.079  0.00  0.00    -0.287 OA
ENDBRANCH  13  16
ENDBRANCH  12  13
ENDBRANCH  11  12
ENDBRANCH  10  11
ENDBRANCH   1  10
TORSDOF 6
REMARK  Name = ../refined-set-2016/4ovg/4ovg_pocket.pdb
REMARK  108 active torsions:
REMARK  status: ('A' for Active; 'I' for Inactive)
REMARK    1  A    between atoms: _1  and  _3
REMARK    2  A    between atoms: _3  and  _4
REMARK    3  A    between atoms: _3  and  _6
REMARK    4  A    between atoms: _6  and  _7
REMARK    5  A    between atoms: _9  and  _11
REMARK    6  A    between atoms: _11  and  _12
REMARK    7  A    between atoms: _11  and  _14
REMARK    8  A    between atoms: _14  and  _15
REMARK    9  A    between atoms: _18  and  _20
REMARK   10  A    between atoms: _20  and  _21
REMARK   11  A    between atoms: _20  and  _23
REMARK   12  A    between atoms: _23  and  _24
REMARK   13  A    between atoms: _24  and  _25
REMARK   14  A    between atoms: _25  and  _26
REMARK   15  A    between atoms: _35  and  _37
REMARK   16  A    between atoms: _37  and  _38
REMARK   17  A    between atoms: _37  and  _40
REMARK   18  A    between atoms: _40  and  _41
REMARK   19  A    between atoms: _46  and  _47
REMARK   20  A    between atoms: _49  and  _51
REMARK   21  A    between atoms: _51  and  _52
REMARK   22  A    between atoms: _51  and  _54
REMARK   23  A    between atoms: _54  and  _55
REMARK   24  A    between atoms: _58  and  _60
REMARK   25  A    between atoms: _60  and  _61
REMARK   26  A    between atoms: _64  and  _66
REMARK   27  A    between atoms: _66  and  _67
REMARK   28  A    between atoms: _66  and  _69
REMARK   29  A    between atoms: _69  and  _70
REMARK   30  A    between atoms: _73  and  _75
REMARK   31  A    between atoms: _75  and  _76
REMARK   32  A    between atoms: _75  and  _78
REMARK   33  A    between atoms: _78  and  _79
REMARK   34  A    between atoms: _82  and  _84
REMARK   35  A    between atoms: _84  and  _85
REMARK   36  A    between atoms: _87  and  _89
REMARK   37  A    between atoms: _89  and  _90
REMARK   38  A    between atoms: _89  and  _92
REMARK   39  A    between atoms: _92  and  _93
REMARK   40  A    between atoms: _98  and  _100
REMARK   41  A    between atoms: _100  and  _101
REMARK   42  A    between atoms: _100  and  _103
REMARK   43  A    between atoms: _103  and  _104
REMARK   44  A    between atoms: _104  and  _105
REMARK   45  A    between atoms: _105  and  _106
REMARK   46  A    between atoms: _115  and  _117
REMARK   47  A    between atoms: _117  and  _118
REMARK   48  A    between atoms: _117  and  _120
REMARK   49  A    between atoms: _120  and  _121
REMARK   50  A    between atoms: _124  and  _126
REMARK   51  A    between atoms: _126  and  _127
REMARK   52  A    between atoms: _130  and  _132
REMARK   53  A    between atoms: _132  and  _133
REMARK   54  A    between atoms: _132  and  _135
REMARK   55  A    between atoms: _135  and  _136
REMARK   56  A    between atoms: _136  and  _137
REMARK   57  A    between atoms: _137  and  _138
REMARK   58  A    between atoms: _147  and  _149
REMARK   59  A    between atoms: _149  and  _150
REMARK   60  A    between atoms: _149  and  _152
REMARK   61  A    between atoms: _152  and  _153
REMARK   62  A    between atoms: _160  and  _161
REMARK   63  A    between atoms: _166  and  _168
REMARK   64  A    between atoms: _168  and  _169
REMARK   65  A    between atoms: _168  and  _171
REMARK   66  A    between atoms: _171  and  _172
REMARK   67  A    between atoms: _175  and  _177
REMARK   68  A    between atoms: _177  and  _178
REMARK   69  A    between atoms: _177  and  _180
REMARK   70  A    between atoms: _180  and  _181
REMARK   71  A    between atoms: _186  and  _187
REMARK   72  A    between atoms: _189  and  _191
REMARK   73  A    between atoms: _191  and  _192
REMARK   74  A    between atoms: _191  and  _194
REMARK   75  A    between atoms: _194  and  _195
REMARK   76  A    between atoms: _195  and  _196
REMARK   77  A    between atoms: _196  and  _197
REMARK   78  A    between atoms: _206  and  _208
REMARK   79  A    between atoms: _208  and  _209
REMARK   80  A    between atoms: _208  and  _211
REMARK   81  A    between atoms: _214  and  _216
REMARK   82  A    between atoms: _216  and  _217
REMARK   83  A    between atoms: _216  and  _219
REMARK   84  A    between atoms: _219  and  _220
REMARK   85  A    between atoms: _223  and  _225
REMARK   86  A    between atoms: _225  and  _226
REMARK   87  A    between atoms: _225  and  _228
REMARK   88  A    between atoms: _228  and  _229
REMARK   89  A    between atoms: _231  and  _233
REMARK   90  A    between atoms: _233  and  _234
REMARK   91  A    between atoms: _233  and  _236
REMARK   92  A    between atoms: _239  and  _241
REMARK   93  A    between atoms: _241  and  _242
REMARK   94  A    between atoms: _241  and  _244
REMARK   95  A    between atoms: _244  and  _245
REMARK   96  A    between atoms: _250  and  _251
REMARK   97  A    between atoms: _253  and  _255
REMARK   98  A    between atoms: _255  and  _256
REMARK   99  A    between atoms: _255  and  _258
REMARK  100  A    between atoms: _261  and  _263
REMARK  101  A    between atoms: _263  and  _264
REMARK  102  A    between atoms: _263  and  _266
REMARK  103  A    between atoms: _269  and  _271
REMARK  104  A    between atoms: _271  and  _272
REMARK  105  A    between atoms: _271  and  _274
REMARK  106  A    between atoms: _274  and  _275
REMARK  107  A    between atoms: _275  and  _276
REMARK  108  A    between atoms: _279  and  _280
REMARK                            x       y       z     vdW  Elec       q    Type
REMARK                         _______ _______ _______ _____ _____    ______ ____
ROOT
ATOM      1  CA  TYR A   1      17.134  -8.678  -2.045  0.00  0.00    +0.149 C 
ENDROOT
BRANCH   1   2
ATOM      2  C   TYR A   1      16.055  -7.589  -2.064  0.00  0.00    +0.239 C 
ATOM      3  O   TYR A   1      16.397  -6.374  -2.011  0.00  0.00    -0.274 OA
ATOM      4  N   LEU A   2      14.779  -7.994  -2.131  0.00  0.00    -0.298 N 
ATOM      5  H   LEU A   2      14.574  -9.006  -2.253  0.00  0.00    +0.150 HD
BRANCH   4   6
ATOM      6  CA  LEU A   2      13.637  -7.020  -2.034  0.00  0.00    +0.137 C 
BRANCH   6   7
ATOM      7  C   LEU A   2      13.153  -6.730  -0.606  0.00  0.00    +0.227 C 
ATOM      8  O   LEU A   2      12.339  -5.807  -0.386  0.00  0.00    -0.286 OA
ENDBRANCH   6   7
BRANCH   6   9
ATOM      9  CB  LEU A   2      12.438  -7.505  -2.850  0.00  0.00    +0.028 C 
BRANCH   9  10
ATOM     10  CG  LEU A   2      12.665  -7.706  -4.340  0.00  0.00    +0.002 C 
ATOM     11  CD2 LEU A   2      11.381  -8.189  -4.993  0.00  0.00    +0.000 C 
ATOM     12  CD1 LEU A   2      13.208  -6.450  -5.019  0.00  0.00    +0.000 C 
ENDBRANCH   9  10
ENDBRANCH   6   9
ENDBRANCH   4   6
ENDBRANCH   1   2
BRANCH   1  13
ATOM     13  N   TYR A   1      16.599 -10.018  -1.720  0.00  0.00    -0.238 NA
ATOM     14  H   TYR A   1      16.664 -10.772  -2.434  0.00  0.00    +0.142 HD
ENDBRANCH   1  13
BRANCH   1  15
ATOM     15  CB  TYR A   1      17.898  -8.708  -3.376  0.00  0.00    +0.053 C 
BRANCH  15  16
ATOM     16  CG  TYR A   1      17.124  -9.214  -4.580  0.00  0.00    -0.020 A 
ATOM     17  CD2 TYR A   1      17.274 -10.532  -5.032  0.00  0.00    -0.001 A 
ATOM     18  CE2 TYR A   1      16.577 -10.995  -6.139  0.00  0.00    +0.036 A 
ATOM     19  CZ  TYR A   1      15.727 -10.125  -6.826  0.00  0.00    +0.134 A 
ATOM     20  CE1 TYR A   1      15.593  -8.813  -6.404  0.00  0.00    +0.036 A 
ATOM     21  CD1 TYR A   1      16.285  -8.372  -5.288  0.00  0.00    -0.001 A 
BRANCH  19  22
ATOM     22  OH  TYR A   1      15.003 -10.537  -7.941  0.00  0.00    -0.506 OA
ATOM     23  HH  TYR A   1      14.464  -9.779  -8.282  0.00  0.00    +0.292 HD
ENDBRANCH  19  22
ENDBRANCH  15  16
ENDBRANCH   1  15
TORSDOF 9
REMARK  Name = ../refined-set-2016/4ovg/4ovg_pocket.pdb
REMARK  108 active torsions:
REMARK  status: ('A' for Active; 'I' for Inactive)
REMARK    1  A    between atoms: _1  and  _3
REMARK    2  A    between atoms: _3  and  _4
REMARK    3  A    between atoms: _3  and  _6
REMARK    4  A    between atoms: _6  and  _7
REMARK    5  A    between atoms: _9  and  _11
REMARK    6  A    between atoms: _11  and  _12
REMARK    7  A    between atoms: _11  and  _14
REMARK    8  A    between atoms: _14  and  _15
REMARK    9  A    between atoms: _18  and  _20
REMARK   10  A    between atoms: _20  and  _21
REMARK   11  A    between atoms: _20  and  _23
REMARK   12  A    between atoms: _23  and  _24
REMARK   13  A    between atoms: _24  and  _25
REMARK   14  A    between atoms: _25  and  _26
REMARK   15  A    between atoms: _35  and  _37
REMARK   16  A    between atoms: _37  and  _38
REMARK   17  A    between atoms: _37  and  _40
REMARK   18  A    between atoms: _40  and  _41
REMARK   19  A    between atoms: _46  and  _47
REMARK   20  A    between atoms: _49  and  _51
REMARK   21  A    between atoms: _51  and  _52
REMARK   22  A    between atoms: _51  and  _54
REMARK   23  A    between atoms: _54  and  _55
REMARK   24  A    between atoms: _58  and  _60
REMARK   25  A    between atoms: _60  and  _61
REMARK   26  A    between atoms: _64  and  _66
REMARK   27  A    between atoms: _66  and  _67
REMARK   28  A    between atoms: _66  and  _69
REMARK   29  A    between atoms: _69  and  _70
REMARK   30  A    between atoms: _73  and  _75
REMARK   31  A    between atoms: _75  and  _76
REMARK   32  A    between atoms: _75  and  _78
REMARK   33  A    between atoms: _78  and  _79
REMARK   34  A    between atoms: _82  and  _84
REMARK   35  A    between atoms: _84  and  _85
REMARK   36  A    between atoms: _87  and  _89
REMARK   37  A    between atoms: _89  and  _90
REMARK   38  A    between atoms: _89  and  _92
REMARK   39  A    between atoms: _92  and  _93
REMARK   40  A    between atoms: _98  and  _100
REMARK   41  A    between atoms: _100  and  _101
REMARK   42  A    between atoms: _100  and  _103
REMARK   43  A    between atoms: _103  and  _104
REMARK   44  A    between atoms: _104  and  _105
REMARK   45  A    between atoms: _105  and  _106
REMARK   46  A    between atoms: _115  and  _117
REMARK   47  A    between atoms: _117  and  _118
REMARK   48  A    between atoms: _117  and  _120
REMARK   49  A    between atoms: _120  and  _121
REMARK   50  A    between atoms: _124  and  _126
REMARK   51  A    between atoms: _126  and  _127
REMARK   52  A    between atoms: _130  and  _132
REMARK   53  A    between atoms: _132  and  _133
REMARK   54  A    between atoms: _132  and  _135
REMARK   55  A    between atoms: _135  and  _136
REMARK   56  A    between atoms: _136  and  _137
REMARK   57  A    between atoms: _137  and  _138
REMARK   58  A    between atoms: _147  and  _149
REMARK   59  A    between atoms: _149  and  _150
REMARK   60  A    between atoms: _149  and  _152
REMARK   61  A    between atoms: _152  and  _153
REMARK   62  A    between atoms: _160  and  _161
REMARK   63  A    between atoms: _166  and  _168
REMARK   64  A    between atoms: _168  and  _169
REMARK   65  A    between atoms: _168  and  _171
REMARK   66  A    between atoms: _171  and  _172
REMARK   67  A    between atoms: _175  and  _177
REMARK   68  A    between atoms: _177  and  _178
REMARK   69  A    between atoms: _177  and  _180
REMARK   70  A    between atoms: _180  and  _181
REMARK   71  A    between atoms: _186  and  _187
REMARK   72  A    between atoms: _189  and  _191
REMARK   73  A    between atoms: _191  and  _192
REMARK   74  A    between atoms: _191  and  _194
REMARK   75  A    between atoms: _194  and  _195
REMARK   76  A    between atoms: _195  and  _196
REMARK   77  A    between atoms: _196  and  _197
REMARK   78  A    between atoms: _206  and  _208
REMARK   79  A    between atoms: _208  and  _209
REMARK   80  A    between atoms: _208  and  _211
REMARK   81  A    between atoms: _214  and  _216
REMARK   82  A    between atoms: _216  and  _217
REMARK   83  A    between atoms: _216  and  _219
REMARK   84  A    between atoms: _219  and  _220
REMARK   85  A    between atoms: _223  and  _225
REMARK   86  A    between atoms: _225  and  _226
REMARK   87  A    between atoms: _225  and  _228
REMARK   88  A    between atoms: _228  and  _229
REMARK   89  A    between atoms: _231  and  _233
REMARK   90  A    between atoms: _233  and  _234
REMARK   91  A    between atoms: _233  and  _236
REMARK   92  A    between atoms: _239  and  _241
REMARK   93  A    between atoms: _241  and  _242
REMARK   94  A    between atoms: _241  and  _244
REMARK   95  A    between atoms: _244  and  _245
REMARK   96  A    between atoms: _250  and  _251
REMARK   97  A    between atoms: _253  and  _255
REMARK   98  A    between atoms: _255  and  _256
REMARK   99  A    between atoms: _255  and  _258
REMARK  100  A    between atoms: _261  and  _263
REMARK  101  A    between atoms: _263  and  _264
REMARK  102  A    between atoms: _263  and  _266
REMARK  103  A    between atoms: _269  and  _271
REMARK  104  A    between atoms: _271  and  _272
REMARK  105  A    between atoms: _271  and  _274
REMARK  106  A    between atoms: _274  and  _275
REMARK  107  A    between atoms: _275  and  _276
REMARK  108  A    between atoms: _279  and  _280
REMARK                            x       y       z     vdW  Elec       q    Type
REMARK                         _______ _______ _______ _____ _____    ______ ____
ROOT
ATOM      1  CA  HIS A   5       4.410  -4.822  -7.658  0.00  0.00    +0.155 C 
ENDROOT
BRANCH   1   3
ATOM      2  C   GLY A   4       6.516  -6.096  -7.883  0.00  0.00    +0.243 C 
ATOM      3  N   HIS A   5       5.741  -5.254  -7.199  0.00  0.00    -0.297 N 
ATOM      4  H   HIS A   5       6.095  -4.883  -6.294  0.00  0.00    +0.150 HD
ATOM      5  O   GLY A   4       6.144  -6.681  -8.894  0.00  0.00    -0.273 OA
BRANCH   2   6
ATOM      6  CA  GLY A   4       7.916  -6.354  -7.343  0.00  0.00    +0.176 C 
BRANCH   6   9
ATOM      7  C   ASP A   3       7.836  -6.267  -4.924  0.00  0.00    +0.241 C 
ATOM      8  O   ASP A   3       7.262  -7.354  -4.855  0.00  0.00    -0.273 OA
ATOM      9  N   GLY A   4       8.207  -5.732  -6.074  0.00  0.00    -0.295 N 
ATOM     10  H   GLY A   4       8.727  -4.831  -6.064  0.00  0.00    +0.150 HD
BRANCH   7  11
ATOM     11  CA  ASP A   3       8.151  -5.455  -3.675  0.00  0.00    +0.160 C 
BRANCH  11  14
ATOM     12  C   THR A   2       9.768  -3.671  -3.776  0.00  0.00    +0.243 C 
ATOM     13  O   THR A   2      10.591  -4.363  -3.212  0.00  0.00    -0.273 OA
ATOM     14  N   ASP A   3       8.550  -4.104  -4.049  0.00  0.00    -0.296 N 
ATOM     15  H   ASP A   3       7.874  -3.479  -4.532  0.00  0.00    +0.150 HD
BRANCH  12  16
ATOM     16  CA  THR A   2      10.121  -2.251  -4.244  0.00  0.00    +0.176 C 
BRANCH  16  18
ATOM     17  C   ALA A   1      11.192  -0.360  -3.194  0.00  0.00    +0.238 C 
ATOM     18  N   THR A   2      11.144  -1.669  -3.401  0.00  0.00    -0.295 N 
ATOM     19  H   THR A   2      11.851  -2.286  -2.952  0.00  0.00    +0.150 HD
ATOM     20  O   ALA A   1      10.433   0.425  -3.767  0.00  0.00    -0.274 OA
BRANCH  17  21
ATOM     21  CA  ALA A   1      12.267   0.125  -2.233  0.00  0.00    +0.145 C 
ATOM     22  CB  ALA A   1      11.687   0.461  -0.891  0.00  0.00    +0.028 C 
BRANCH  21  23
ATOM     23  N   ALA A   1      12.914   1.278  -2.791  0.00  0.00    -0.238 NA
ATOM     24  H   ALA A   1      12.341   1.988  -3.291  0.00  0.00    +0.142 HD
ENDBRANCH  21  23
ENDBRANCH  17  21
ENDBRANCH  16  18
BRANCH  16  25
ATOM     25  CB  THR A   2      10.498  -2.229  -5.747  0.00  0.00    +0.137 C 
ATOM     26  CG2 THR A   2      11.727  -3.001  -6.055  0.00  0.00    +0.034 C 
BRANCH  25  27
ATOM     27  OG1 THR A   2       9.456  -2.792  -6.551  0.00  0.00    -0.382 OA
ATOM     28  HG1 THR A   2       8.625  -2.269  -6.426  0.00  0.00    +0.210 HD
ENDBRANCH  25  27
ENDBRANCH  16  25
ENDBRANCH  12  16
ENDBRANCH  11  14
BRANCH  11  29
ATOM     29  CB  ASP A   3       6.989  -5.410  -2.668  0.00  0.00    +0.143 C 
BRANCH  29  30
ATOM     30  CG  ASP A   3       5.761  -4.716  -3.215  0.00  0.00    +0.367 C 
ATOM     31  OD2 ASP A   3       4.807  -4.506  -2.413  0.00  0.00    -0.246 OA
ATOM     32  OD1 ASP A   3       5.765  -4.340  -4.411  0.00  0.00    -0.246 OA
ENDBRANCH  29  30
ENDBRANCH  11  29
ENDBRANCH   7  11
ENDBRANCH   6   9
ENDBRANCH   2   6
ENDBRANCH   1   3
BRANCH   1  33
ATOM     33  C   HIS A   5       4.350  -3.306  -7.738  0.00  0.00    +0.241 C 
ATOM     34  N   ARG A   6       5.051  -2.647  -6.831  0.00  0.00    -0.297 N 
ATOM     35  H   ARG A   6       5.562  -3.191  -6.107  0.00  0.00    +0.150 HD
ATOM     36  O   HIS A   5       3.678  -2.752  -8.593  0.00  0.00    -0.273 OA
BRANCH  34  37
ATOM     37  CA  ARG A   6       5.140  -1.195  -6.800  0.00  0.00    +0.149 C 
BRANCH  37  38
ATOM     38  C   ARG A   6       6.527  -0.786  -6.333  0.00  0.00    +0.241 C 
ATOM     39  O   ARG A   6       7.256  -1.585  -5.750  0.00  0.00    -0.273 OA
ATOM     40  N   LEU A   7       6.876   0.470  -6.560  0.00  0.00    -0.297 N 
ATOM     41  H   LEU A   7       6.175   1.121  -6.969  0.00  0.00    +0.150 HD
BRANCH  40  42
ATOM     42  CA  LEU A   7       8.222   0.975  -6.253  0.00  0.00    +0.149 C 
BRANCH  42  43
ATOM     43  C   LEU A   7       8.182   2.400  -5.763  0.00  0.00    +0.241 C 
ATOM     44  N   ALA A   8       9.127   2.717  -4.887  0.00  0.00    -0.298 N 
ATOM     45  H   ALA A   8       9.770   1.968  -4.561  0.00  0.00    +0.150 HD
ATOM     46  O   LEU A   7       7.311   3.184  -6.160  0.00  0.00    -0.273 OA
BRANCH  44  47
ATOM     47  CA  ALA A   8       9.306   4.045  -4.367  0.00  0.00    +0.137 C 
ATOM     48  CB  ALA A   8       8.868   4.089  -2.927  0.00  0.00    +0.030 C 
BRANCH  47  49
ATOM     49  C   ALA A   8      10.799   4.398  -4.491  0.00  0.00    +0.227 C 
ATOM     50  O   ALA A   8      11.678   3.544  -4.227  0.00  0.00    -0.286 OA
ENDBRANCH  47  49
ENDBRANCH  44  47
ENDBRANCH  42  43
BRANCH  42  51
ATOM     51  CB  LEU A   7       9.121   0.892  -7.494  0.00  0.00    +0.029 C 
BRANCH  51  52
ATOM     52  CG  LEU A   7      10.556   1.436  -7.355  0.00  0.00    +0.002 C 
ATOM     53  CD2 LEU A   7      10.684   2.897  -7.788  0.00  0.00    +0.000 C 
ATOM     54  CD1 LEU A   7      11.487   0.551  -8.163  0.00  0.00    +0.000 C 
ENDBRANCH  51  52
ENDBRANCH  42  51
ENDBRANCH  40  42
ENDBRANCH  37  38
BRANCH  37  55
ATOM     55  CB  ARG A   6       4.044  -0.599  -5.921  0.00  0.00    +0.033 C 
BRANCH  55  56
ATOM     56  CG  ARG A   6       3.641  -1.397  -4.680  0.00  0.00    +0.045 C 
BRANCH  56  57
ATOM     57  CD  ARG A   6       4.549  -1.133  -3.502  0.00  0.00    +0.174 C 
BRANCH  57  58
ATOM     58  NE  ARG A   6       4.137  -1.829  -2.281  0.00  0.00    -0.265 N 
ATOM     59  CZ  ARG A   6       3.233  -1.382  -1.405  0.00  0.00    +0.342 C 
ATOM     60  NH2 ARG A   6       2.959  -2.120  -0.345  0.00  0.00    -0.292 N 
ATOM     61 HH21 ARG A   6       2.259  -1.792   0.350  0.00  0.00    +0.255 HD
ATOM     62 HH22 ARG A   6       3.444  -3.030  -0.205  0.00  0.00    +0.255 HD
ATOM     63  NH1 ARG A   6       2.577  -0.227  -1.589  0.00  0.00    -0.292 N 
ATOM     64 HH11 ARG A   6       1.879   0.092  -0.887  0.00  0.00    +0.255 HD
ATOM     65 HH12 ARG A   6       2.766   0.350  -2.434  0.00  0.00    +0.255 HD
ATOM     66  HE  ARG A   6       4.585  -2.746  -2.080  0.00  0.00    +0.259 HD
ENDBRANCH  57  58
ENDBRANCH  56  57
ENDBRANCH  55  56
ENDBRANCH  37  55
ENDBRANCH  34  37
ENDBRANCH   1  33
BRANCH   1  67
ATOM     67  CB  HIS A   5       3.321  -5.274  -6.693  0.00  0.00    +0.076 C 
BRANCH  67  68
ATOM     68  CG  HIS A   5       3.278  -6.760  -6.476  0.00  0.00    +0.082 A 
ATOM     69  ND1 HIS A   5       3.687  -7.358  -5.298  0.00  0.00    -0.227 NA
ATOM     70  CE1 HIS A   5       3.543  -8.669  -5.401  0.00  0.00    +0.199 A 
ATOM     71  NE2 HIS A   5       3.074  -8.941  -6.609  0.00  0.00    -0.221 NA
ATOM     72  CD2 HIS A   5       2.902  -7.765  -7.299  0.00  0.00    +0.115 A 
ENDBRANCH  67  68
ENDBRANCH   1  67
TORSDOF 28
REMARK  Name = ../refined-set-2016/4ovg/4ovg_pocket.pdb
REMARK  108 active torsions:
REMARK  status: ('A' for Active; 'I' for Inactive)
REMARK    1  A    between atoms: _1  and  _3
REMARK    2  A    between atoms: _3  and  _4
REMARK    3  A    between atoms: _3  and  _6
REMARK    4  A    between atoms: _6  and  _7
REMARK    5  A    between atoms: _9  and  _11
REMARK    6  A    between atoms: _11  and  _12
REMARK    7  A    between atoms: _11  and  _14
REMARK    8  A    between atoms: _14  and  _15
REMARK    9  A    between atoms: _18  and  _20
REMARK   10  A    between atoms: _20  and  _21
REMARK   11  A    between atoms: _20  and  _23
REMARK   12  A    between atoms: _23  and  _24
REMARK   13  A    between atoms: _24  and  _25
REMARK   14  A    between atoms: _25  and  _26
REMARK   15  A    between atoms: _35  and  _37
REMARK   16  A    between atoms: _37  and  _38
REMARK   17  A    between atoms: _37  and  _40
REMARK   18  A    between atoms: _40  and  _41
REMARK   19  A    between atoms: _46  and  _47
REMARK   20  A    between atoms: _49  and  _51
REMARK   21  A    between atoms: _51  and  _52
REMARK   22  A    between atoms: _51  and  _54
REMARK   23  A    between atoms: _54  and  _55
REMARK   24  A    between atoms: _58  and  _60
REMARK   25  A    between atoms: _60  and  _61
REMARK   26  A    between atoms: _64  and  _66
REMARK   27  A    between atoms: _66  and  _67
REMARK   28  A    between atoms: _66  and  _69
REMARK   29  A    between atoms: _69  and  _70
REMARK   30  A    between atoms: _73  and  _75
REMARK   31  A    between atoms: _75  and  _76
REMARK   32  A    between atoms: _75  and  _78
REMARK   33  A    between atoms: _78  and  _79
REMARK   34  A    between atoms: _82  and  _84
REMARK   35  A    between atoms: _84  and  _85
REMARK   36  A    between atoms: _87  and  _89
REMARK   37  A    between atoms: _89  and  _90
REMARK   38  A    between atoms: _89  and  _92
REMARK   39  A    between atoms: _92  and  _93
REMARK   40  A    between atoms: _98  and  _100
REMARK   41  A    between atoms: _100  and  _101
REMARK   42  A    between atoms: _100  and  _103
REMARK   43  A    between atoms: _103  and  _104
REMARK   44  A    between atoms: _104  and  _105
REMARK   45  A    between atoms: _105  and  _106
REMARK   46  A    between atoms: _115  and  _117
REMARK   47  A    between atoms: _117  and  _118
REMARK   48  A    between atoms: _117  and  _120
REMARK   49  A    between atoms: _120  and  _121
REMARK   50  A    between atoms: _124  and  _126
REMARK   51  A    between atoms: _126  and  _127
REMARK   52  A    between atoms: _130  and  _132
REMARK   53  A    between atoms: _132  and  _133
REMARK   54  A    between atoms: _132  and  _135
REMARK   55  A    between atoms: _135  and  _136
REMARK   56  A    between atoms: _136  and  _137
REMARK   57  A    between atoms: _137  and  _138
REMARK   58  A    between atoms: _147  and  _149
REMARK   59  A    between atoms: _149  and  _150
REMARK   60  A    between atoms: _149  and  _152
REMARK   61  A    between atoms: _152  and  _153
REMARK   62  A    between atoms: _160  and  _161
REMARK   63  A    between atoms: _166  and  _168
REMARK   64  A    between atoms: _168  and  _169
REMARK   65  A    between atoms: _168  and  _171
REMARK   66  A    between atoms: _171  and  _172
REMARK   67  A    between atoms: _175  and  _177
REMARK   68  A    between atoms: _177  and  _178
REMARK   69  A    between atoms: _177  and  _180
REMARK   70  A    between atoms: _180  and  _181
REMARK   71  A    between atoms: _186  and  _187
REMARK   72  A    between atoms: _189  and  _191
REMARK   73  A    between atoms: _191  and  _192
REMARK   74  A    between atoms: _191  and  _194
REMARK   75  A    between atoms: _194  and  _195
REMARK   76  A    between atoms: _195  and  _196
REMARK   77  A    between atoms: _196  and  _197
REMARK   78  A    between atoms: _206  and  _208
REMARK   79  A    between atoms: _208  and  _209
REMARK   80  A    between atoms: _208  and  _211
REMARK   81  A    between atoms: _214  and  _216
REMARK   82  A    between atoms: _216  and  _217
REMARK   83  A    between atoms: _216  and  _219
REMARK   84  A    between atoms: _219  and  _220
REMARK   85  A    between atoms: _223  and  _225
REMARK   86  A    between atoms: _225  and  _226
REMARK   87  A    between atoms: _225  and  _228
REMARK   88  A    between atoms: _228  and  _229
REMARK   89  A    between atoms: _231  and  _233
REMARK   90  A    between atoms: _233  and  _234
REMARK   91  A    between atoms: _233  and  _236
REMARK   92  A    between atoms: _239  and  _241
REMARK   93  A    between atoms: _241  and  _242
REMARK   94  A    between atoms: _241  and  _244
REMARK   95  A    between atoms: _244  and  _245
REMARK   96  A    between atoms: _250  and  _251
REMARK   97  A    between atoms: _253  and  _255
REMARK   98  A    between atoms: _255  and  _256
REMARK   99  A    between atoms: _255  and  _258
REMARK  100  A    between atoms: _261  and  _263
REMARK  101  A    between atoms: _263  and  _264
REMARK  102  A    between atoms: _263  and  _266
REMARK  103  A    between atoms: _269  and  _271
REMARK  104  A    between atoms: _271  and  _272
REMARK  105  A    between atoms: _271  and  _274
REMARK  106  A    between atoms: _274  and  _275
REMARK  107  A    between atoms: _275  and  _276
REMARK  108  A    between atoms: _279  and  _280
REMARK                            x       y       z     vdW  Elec       q    Type
REMARK                         _______ _______ _______ _____ _____    ______ ____
ROOT
ATOM      1  C   PHE A   2      18.166  -4.548  -8.136  0.00  0.00    +0.244 C 
ATOM      2  N   PRO A   3      16.848  -4.506  -8.407  0.00  0.00    -0.272 N 
ATOM      3  CD  PRO A   3      15.702  -4.975  -7.599  0.00  0.00    +0.094 C 
ATOM      4  CG  PRO A   3      14.527  -4.311  -8.258  0.00  0.00    +0.024 C 
ATOM      5  CB  PRO A   3      14.891  -4.011  -9.650  0.00  0.00    +0.031 C 
ATOM      6  CA  PRO A   3      16.432  -3.932  -9.688  0.00  0.00    +0.152 C 
ATOM      7  O   PHE A   2      19.005  -4.199  -8.950  0.00  0.00    -0.273 OA
ENDROOT
BRANCH   6   8
ATOM      8  C   PRO A   3      16.848  -2.472  -9.857  0.00  0.00    +0.241 C 
ATOM      9  O   PRO A   3      17.155  -1.777  -8.861  0.00  0.00    -0.273 OA
ATOM     10  N   ASP A   4      16.861  -2.038 -11.113  0.00  0.00    -0.297 N 
ATOM     11  H   ASP A   4      16.610  -2.712 -11.864  0.00  0.00    +0.150 HD
BRANCH  10  12
ATOM     12  CA  ASP A   4      17.207  -0.668 -11.507  0.00  0.00    +0.160 C 
BRANCH  12  13
ATOM     13  C   ASP A   4      15.923   0.156 -11.612  0.00  0.00    +0.241 C 
ATOM     14  N   TYR A   5      15.792   1.121 -10.699  0.00  0.00    -0.298 N 
ATOM     15  H   TYR A   5      16.547   1.261  -9.997  0.00  0.00    +0.150 HD
ATOM     16  O   ASP A   4      15.052  -0.070 -12.490  0.00  0.00    -0.273 OA
BRANCH  14  17
ATOM     17  CA  TYR A   5      14.627   1.976 -10.662  0.00  0.00    +0.141 C 
BRANCH  17  18
ATOM     18  C   TYR A   5      14.374   2.721 -11.985  0.00  0.00    +0.227 C 
ATOM     19  O   TYR A   5      13.225   3.043 -12.330  0.00  0.00    -0.286 OA
ENDBRANCH  17  18
BRANCH  17  20
ATOM     20  CB  TYR A   5      14.727   2.977  -9.494  0.00  0.00    +0.054 C 
BRANCH  20  21
ATOM     21  CG  TYR A   5      15.614   4.153  -9.754  0.00  0.00    -0.020 A 
ATOM     22  CD2 TYR A   5      16.971   4.106  -9.451  0.00  0.00    -0.001 A 
ATOM     23  CE2 TYR A   5      17.796   5.180  -9.701  0.00  0.00    +0.036 A 
ATOM     24  CZ  TYR A   5      17.259   6.337 -10.202  0.00  0.00    +0.134 A 
ATOM     25  CE1 TYR A   5      15.906   6.436 -10.467  0.00  0.00    +0.036 A 
ATOM     26  CD1 TYR A   5      15.090   5.344 -10.249  0.00  0.00    -0.001 A 
BRANCH  24  27
ATOM     27  OH  TYR A   5      18.065   7.424 -10.414  0.00  0.00    -0.506 OA
ATOM     28  HH  TYR A   5      17.758   8.176  -9.849  0.00  0.00    +0.292 HD
ENDBRANCH  24  27
ENDBRANCH  20  21
ENDBRANCH  17  20
ENDBRANCH  14  17
ENDBRANCH  12  13
BRANCH  12  29
ATOM     29  CB  ASP A   4      17.938  -0.742 -12.852  0.00  0.00    +0.143 C 
BRANCH  29  30
ATOM     30  CG  ASP A   4      18.399   0.613 -13.392  0.00  0.00    +0.367 C 
ATOM     31  OD2 ASP A   4      18.180   1.684 -12.801  0.00  0.00    -0.246 OA
ATOM     32  OD1 ASP A   4      19.054   0.574 -14.447  0.00  0.00    -0.246 OA
ENDBRANCH  29  30
ENDBRANCH  12  29
ENDBRANCH  10  12
ENDBRANCH   6   8
BRANCH   1  33
ATOM     33  CA  PHE A   2      18.604  -5.068  -6.772  0.00  0.00    +0.153 C 
BRANCH  33  35
ATOM     34  C   ARG A   1      19.783  -7.046  -7.545  0.00  0.00    +0.238 C 
ATOM     35  N   PHE A   2      19.829  -5.840  -6.973  0.00  0.00    -0.297 N 
ATOM     36  H   PHE A   2      20.743  -5.447  -6.668  0.00  0.00    +0.150 HD
ATOM     37  O   ARG A   1      18.725  -7.569  -7.943  0.00  0.00    -0.274 OA
BRANCH  34  38
ATOM     38  CA  ARG A   1      21.116  -7.779  -7.708  0.00  0.00    +0.145 C 
BRANCH  38  39
ATOM     39  N   ARG A   1      21.142  -8.919  -6.783  0.00  0.00    -0.238 NA
ATOM     40  H   ARG A   1      20.754  -9.831  -7.099  0.00  0.00    +0.142 HD
ENDBRANCH  38  39
BRANCH  38  41
ATOM     41  CB  ARG A   1      21.243  -8.230  -9.172  0.00  0.00    +0.030 C 
BRANCH  41  42
ATOM     42  CG  ARG A   1      22.602  -8.765  -9.598  0.00  0.00    +0.045 C 
BRANCH  42  43
ATOM     43  CD  ARG A   1      22.757  -8.664 -11.109  0.00  0.00    +0.174 C 
BRANCH  43  44
ATOM     44  NE  ARG A   1      21.662  -9.319 -11.830  0.00  0.00    -0.265 N 
ATOM     45  CZ  ARG A   1      21.482 -10.635 -11.882  0.00  0.00    +0.342 C 
ATOM     46  NH2 ARG A   1      22.309 -11.443 -11.241  0.00  0.00    -0.292 N 
ATOM     47 HH21 ARG A   1      23.102 -11.049 -10.695  0.00  0.00    +0.255 HD
ATOM     48 HH22 ARG A   1      22.167 -12.472 -11.283  0.00  0.00    +0.255 HD
ATOM     49  NH1 ARG A   1      20.468 -11.151 -12.574  0.00  0.00    -0.292 N 
ATOM     50 HH11 ARG A   1      20.334 -12.182 -12.610  0.00  0.00    +0.255 HD
ATOM     51 HH12 ARG A   1      19.810 -10.523 -13.079  0.00  0.00    +0.255 HD
ATOM     52  HE  ARG A   1      20.982  -8.715 -12.334  0.00  0.00    +0.259 HD
ENDBRANCH  43  44
ENDBRANCH  42  43
ENDBRANCH  41  42
ENDBRANCH  38  41
ENDBRANCH  34  38
ENDBRANCH  33  35
BRANCH  33  53
ATOM     53  CB  PHE A   2      18.835  -3.928  -5.748  0.00  0.00    +0.055 C 
BRANCH  53  54
ATOM     54  CG  PHE A   2      17.573  -3.368  -5.164  0.00  0.00    -0.020 A 
ATOM     55  CD2 PHE A   2      16.996  -3.944  -4.034  0.00  0.00    -0.004 A 
ATOM     56  CE2 PHE A   2      15.824  -3.443  -3.502  0.00  0.00    -0.000 A 
ATOM     57  CZ  PHE A   2      15.239  -2.309  -4.076  0.00  0.00    -0.000 A 
ATOM     58  CE1 PHE A   2      15.808  -1.725  -5.185  0.00  0.00    -0.000 A 
ATOM     59  CD1 PHE A   2      16.982  -2.241  -5.712  0.00  0.00    -0.004 A 
ENDBRANCH  53  54
ENDBRANCH  33  53
ENDBRANCH   1  33
TORSDOF 20
REMARK  Name = ../refined-set-2016/4ovg/4ovg_pocket.pdb
REMARK  108 active torsions:
REMARK  status: ('A' for Active; 'I' for Inactive)
REMARK    1  A    between atoms: _1  and  _3
REMARK    2  A    between atoms: _3  and  _4
REMARK    3  A    between atoms: _3  and  _6
REMARK    4  A    between atoms: _6  and  _7
REMARK    5  A    between atoms: _9  and  _11
REMARK    6  A    between atoms: _11  and  _12
REMARK    7  A    between atoms: _11  and  _14
REMARK    8  A    between atoms: _14  and  _15
REMARK    9  A    between atoms: _18  and  _20
REMARK   10  A    between atoms: _20  and  _21
REMARK   11  A    between atoms: _20  and  _23
REMARK   12  A    between atoms: _23  and  _24
REMARK   13  A    between atoms: _24  and  _25
REMARK   14  A    between atoms: _25  and  _26
REMARK   15  A    between atoms: _35  and  _37
REMARK   16  A    between atoms: _37  and  _38
REMARK   17  A    between atoms: _37  and  _40
REMARK   18  A    between atoms: _40  and  _41
REMARK   19  A    between atoms: _46  and  _47
REMARK   20  A    between atoms: _49  and  _51
REMARK   21  A    between atoms: _51  and  _52
REMARK   22  A    between atoms: _51  and  _54
REMARK   23  A    between atoms: _54  and  _55
REMARK   24  A    between atoms: _58  and  _60
REMARK   25  A    between atoms: _60  and  _61
REMARK   26  A    between atoms: _64  and  _66
REMARK   27  A    between atoms: _66  and  _67
REMARK   28  A    between atoms: _66  and  _69
REMARK   29  A    between atoms: _69  and  _70
REMARK   30  A    between atoms: _73  and  _75
REMARK   31  A    between atoms: _75  and  _76
REMARK   32  A    between atoms: _75  and  _78
REMARK   33  A    between atoms: _78  and  _79
REMARK   34  A    between atoms: _82  and  _84
REMARK   35  A    between atoms: _84  and  _85
REMARK   36  A    between atoms: _87  and  _89
REMARK   37  A    between atoms: _89  and  _90
REMARK   38  A    between atoms: _89  and  _92
REMARK   39  A    between atoms: _92  and  _93
REMARK   40  A    between atoms: _98  and  _100
REMARK   41  A    between atoms: _100  and  _101
REMARK   42  A    between atoms: _100  and  _103
REMARK   43  A    between atoms: _103  and  _104
REMARK   44  A    between atoms: _104  and  _105
REMARK   45  A    between atoms: _105  and  _106
REMARK   46  A    between atoms: _115  and  _117
REMARK   47  A    between atoms: _117  and  _118
REMARK   48  A    between atoms: _117  and  _120
REMARK   49  A    between atoms: _120  and  _121
REMARK   50  A    between atoms: _124  and  _126
REMARK   51  A    between atoms: _126  and  _127
REMARK   52  A    between atoms: _130  and  _132
REMARK   53  A    between atoms: _132  and  _133
REMARK   54  A    between atoms: _132  and  _135
REMARK   55  A    between atoms: _135  and  _136
REMARK   56  A    between atoms: _136  and  _137
REMARK   57  A    between atoms: _137  and  _138
REMARK   58  A    between atoms: _147  and  _149
REMARK   59  A    between atoms: _149  and  _150
REMARK   60  A    between atoms: _149  and  _152
REMARK   61  A    between atoms: _152  and  _153
REMARK   62  A    between atoms: _160  and  _161
REMARK   63  A    between atoms: _166  and  _168
REMARK   64  A    between atoms: _168  and  _169
REMARK   65  A    between atoms: _168  and  _171
REMARK   66  A    between atoms: _171  and  _172
REMARK   67  A    between atoms: _175  and  _177
REMARK   68  A    between atoms: _177  and  _178
REMARK   69  A    between atoms: _177  and  _180
REMARK   70  A    between atoms: _180  and  _181
REMARK   71  A    between atoms: _186  and  _187
REMARK   72  A    between atoms: _189  and  _191
REMARK   73  A    between atoms: _191  and  _192
REMARK   74  A    between atoms: _191  and  _194
REMARK   75  A    between atoms: _194  and  _195
REMARK   76  A    between atoms: _195  and  _196
REMARK   77  A    between atoms: _196  and  _197
REMARK   78  A    between atoms: _206  and  _208
REMARK   79  A    between atoms: _208  and  _209
REMARK   80  A    between atoms: _208  and  _211
REMARK   81  A    between atoms: _214  and  _216
REMARK   82  A    between atoms: _216  and  _217
REMARK   83  A    between atoms: _216  and  _219
REMARK   84  A    between atoms: _219  and  _220
REMARK   85  A    between atoms: _223  and  _225
REMARK   86  A    between atoms: _225  and  _226
REMARK   87  A    between atoms: _225  and  _228
REMARK   88  A    between atoms: _228  and  _229
REMARK   89  A    between atoms: _231  and  _233
REMARK   90  A    between atoms: _233  and  _234
REMARK   91  A    between atoms: _233  and  _236
REMARK   92  A    between atoms: _239  and  _241
REMARK   93  A    between atoms: _241  and  _242
REMARK   94  A    between atoms: _241  and  _244
REMARK   95  A    between atoms: _244  and  _245
REMARK   96  A    between atoms: _250  and  _251
REMARK   97  A    between atoms: _253  and  _255
REMARK   98  A    between atoms: _255  and  _256
REMARK   99  A    between atoms: _255  and  _258
REMARK  100  A    between atoms: _261  and  _263
REMARK  101  A    between atoms: _263  and  _264
REMARK  102  A    between atoms: _263  and  _266
REMARK  103  A    between atoms: _269  and  _271
REMARK  104  A    between atoms: _271  and  _272
REMARK  105  A    between atoms: _271  and  _274
REMARK  106  A    between atoms: _274  and  _275
REMARK  107  A    between atoms: _275  and  _276
REMARK  108  A    between atoms: _279  and  _280
REMARK                            x       y       z     vdW  Elec       q    Type
REMARK                         _______ _______ _______ _____ _____    ______ ____
ROOT
ATOM      1  C   ARG A   1      12.453   0.417 -15.264  0.00  0.00    +0.238 C 
ATOM      2  N   VAL A   2      12.158   0.770 -14.012  0.00  0.00    -0.297 N 
ATOM      3  H   VAL A   2      12.917   1.123 -13.394  0.00  0.00    +0.150 HD
ATOM      4  O   ARG A   1      11.654  -0.084 -16.033  0.00  0.00    -0.274 OA
ENDROOT
BRANCH   1   5
ATOM      5  CA  ARG A   1      13.872   0.595 -15.693  0.00  0.00    +0.145 C 
BRANCH   5   6
ATOM      6  N   ARG A   1      14.562   1.515 -14.809  0.00  0.00    -0.238 NA
ATOM      7  H   ARG A   1      15.062   1.135 -13.980  0.00  0.00    +0.142 HD
ENDBRANCH   5   6
BRANCH   5   8
ATOM      8  CB  ARG A   1      14.534  -0.777 -15.666  0.00  0.00    +0.030 C 
BRANCH   8   9
ATOM      9  CG  ARG A   1      15.955  -0.755 -16.128  0.00  0.00    +0.045 C 
BRANCH   9  10
ATOM     10  CD  ARG A   1      15.984  -0.625 -17.645  0.00  0.00    +0.174 C 
BRANCH  10  11
ATOM     11  NE  ARG A   1      17.091   0.227 -18.052  0.00  0.00    -0.265 N 
ATOM     12  HE  ARG A   1      17.610   0.740 -17.310  0.00  0.00    +0.259 HD
ATOM     13  CZ  ARG A   1      17.480   0.391 -19.308  0.00  0.00    +0.342 C 
ATOM     14  NH2 ARG A   1      18.509   1.191 -19.563  0.00  0.00    -0.292 N 
ATOM     15 HH21 ARG A   1      18.996   1.677 -18.783  0.00  0.00    +0.255 HD
ATOM     16 HH22 ARG A   1      18.828   1.332 -20.543  0.00  0.00    +0.255 HD
ATOM     17  NH1 ARG A   1      16.833  -0.231 -20.293  0.00  0.00    -0.292 N 
ATOM     18 HH11 ARG A   1      16.022  -0.845 -20.076  0.00  0.00    +0.255 HD
ATOM     19 HH12 ARG A   1      17.139  -0.102 -21.279  0.00  0.00    +0.255 HD
ENDBRANCH  10  11
ENDBRANCH   9  10
ENDBRANCH   8   9
ENDBRANCH   5   8
ENDBRANCH   1   5
BRANCH   2  20
ATOM     20  CA  VAL A   2      10.812   0.676 -13.490  0.00  0.00    +0.148 C 
BRANCH  20  21
ATOM     21  C   VAL A   2      10.070   1.969 -13.740  0.00  0.00    +0.241 C 
ATOM     22  N   LEU A   3      10.736   3.095 -13.511  0.00  0.00    -0.298 N 
ATOM     23  H   LEU A   3      11.666   3.054 -13.047  0.00  0.00    +0.150 HD
ATOM     24  O   VAL A   2       8.917   1.958 -14.138  0.00  0.00    -0.273 OA
BRANCH  22  25
ATOM     25  CA  LEU A   3      10.179   4.400 -13.904  0.00  0.00    +0.137 C 
BRANCH  25  26
ATOM     26  C   LEU A   3       9.843   4.365 -15.365  0.00  0.00    +0.227 C 
ATOM     27  O   LEU A   3      10.653   3.909 -16.154  0.00  0.00    -0.286 OA
ENDBRANCH  25  26
BRANCH  25  28
ATOM     28  CB  LEU A   3      11.170   5.524 -13.694  0.00  0.00    +0.028 C 
BRANCH  28  29
ATOM     29  CG  LEU A   3      11.539   5.933 -12.275  0.00  0.00    +0.002 C 
ATOM     30  CD2 LEU A   3      10.363   6.530 -11.521  0.00  0.00    +0.000 C 
ATOM     31  CD1 LEU A   3      12.656   6.929 -12.397  0.00  0.00    +0.000 C 
ENDBRANCH  28  29
ENDBRANCH  25  28
ENDBRANCH  22  25
ENDBRANCH  20  21
BRANCH  20  32
ATOM     32  CB  VAL A   2      10.854   0.369 -12.001  0.00  0.00    +0.027 C 
ATOM     33  CG2 VAL A   2       9.451   0.366 -11.410  0.00  0.00    +0.002 C 
ATOM     34  CG1 VAL A   2      11.562  -0.960 -11.787  0.00  0.00    +0.002 C 
ENDBRANCH  20  32
ENDBRANCH   2  20
TORSDOF 13
REMARK  Name = ../refined-set-2016/4ovg/4ovg_pocket.pdb
REMARK  108 active torsions:
REMARK  status: ('A' for Active; 'I' for Inactive)
REMARK    1  A    between atoms: _1  and  _3
REMARK    2  A    between atoms: _3  and  _4
REMARK    3  A    between atoms: _3  and  _6
REMARK    4  A    between atoms: _6  and  _7
REMARK    5  A    between atoms: _9  and  _11
REMARK    6  A    between atoms: _11  and  _12
REMARK    7  A    between atoms: _11  and  _14
REMARK    8  A    between atoms: _14  and  _15
REMARK    9  A    between atoms: _18  and  _20
REMARK   10  A    between atoms: _20  and  _21
REMARK   11  A    between atoms: _20  and  _23
REMARK   12  A    between atoms: _23  and  _24
REMARK   13  A    between atoms: _24  and  _25
REMARK   14  A    between atoms: _25  and  _26
REMARK   15  A    between atoms: _35  and  _37
REMARK   16  A    between atoms: _37  and  _38
REMARK   17  A    between atoms: _37  and  _40
REMARK   18  A    between atoms: _40  and  _41
REMARK   19  A    between atoms: _46  and  _47
REMARK   20  A    between atoms: _49  and  _51
REMARK   21  A    between atoms: _51  and  _52
REMARK   22  A    between atoms: _51  and  _54
REMARK   23  A    between atoms: _54  and  _55
REMARK   24  A    between atoms: _58  and  _60
REMARK   25  A    between atoms: _60  and  _61
REMARK   26  A    between atoms: _64  and  _66
REMARK   27  A    between atoms: _66  and  _67
REMARK   28  A    between atoms: _66  and  _69
REMARK   29  A    between atoms: _69  and  _70
REMARK   30  A    between atoms: _73  and  _75
REMARK   31  A    between atoms: _75  and  _76
REMARK   32  A    between atoms: _75  and  _78
REMARK   33  A    between atoms: _78  and  _79
REMARK   34  A    between atoms: _82  and  _84
REMARK   35  A    between atoms: _84  and  _85
REMARK   36  A    between atoms: _87  and  _89
REMARK   37  A    between atoms: _89  and  _90
REMARK   38  A    between atoms: _89  and  _92
REMARK   39  A    between atoms: _92  and  _93
REMARK   40  A    between atoms: _98  and  _100
REMARK   41  A    between atoms: _100  and  _101
REMARK   42  A    between atoms: _100  and  _103
REMARK   43  A    between atoms: _103  and  _104
REMARK   44  A    between atoms: _104  and  _105
REMARK   45  A    between atoms: _105  and  _106
REMARK   46  A    between atoms: _115  and  _117
REMARK   47  A    between atoms: _117  and  _118
REMARK   48  A    between atoms: _117  and  _120
REMARK   49  A    between atoms: _120  and  _121
REMARK   50  A    between atoms: _124  and  _126
REMARK   51  A    between atoms: _126  and  _127
REMARK   52  A    between atoms: _130  and  _132
REMARK   53  A    between atoms: _132  and  _133
REMARK   54  A    between atoms: _132  and  _135
REMARK   55  A    between atoms: _135  and  _136
REMARK   56  A    between atoms: _136  and  _137
REMARK   57  A    between atoms: _137  and  _138
REMARK   58  A    between atoms: _147  and  _149
REMARK   59  A    between atoms: _149  and  _150
REMARK   60  A    between atoms: _149  and  _152
REMARK   61  A    between atoms: _152  and  _153
REMARK   62  A    between atoms: _160  and  _161
REMARK   63  A    between atoms: _166  and  _168
REMARK   64  A    between atoms: _168  and  _169
REMARK   65  A    between atoms: _168  and  _171
REMARK   66  A    between atoms: _171  and  _172
REMARK   67  A    between atoms: _175  and  _177
REMARK   68  A    between atoms: _177  and  _178
REMARK   69  A    between atoms: _177  and  _180
REMARK   70  A    between atoms: _180  and  _181
REMARK   71  A    between atoms: _186  and  _187
REMARK   72  A    between atoms: _189  and  _191
REMARK   73  A    between atoms: _191  and  _192
REMARK   74  A    between atoms: _191  and  _194
REMARK   75  A    between atoms: _194  and  _195
REMARK   76  A    between atoms: _195  and  _196
REMARK   77  A    between atoms: _196  and  _197
REMARK   78  A    between atoms: _206  and  _208
REMARK   79  A    between atoms: _208  and  _209
REMARK   80  A    between atoms: _208  and  _211
REMARK   81  A    between atoms: _214  and  _216
REMARK   82  A    between atoms: _216  and  _217
REMARK   83  A    between atoms: _216  and  _219
REMARK   84  A    between atoms: _219  and  _220
REMARK   85  A    between atoms: _223  and  _225
REMARK   86  A    between atoms: _225  and  _226
REMARK   87  A    between atoms: _225  and  _228
REMARK   88  A    between atoms: _228  and  _229
REMARK   89  A    between atoms: _231  and  _233
REMARK   90  A    between atoms: _233  and  _234
REMARK   91  A    between atoms: _233  and  _236
REMARK   92  A    between atoms: _239  and  _241
REMARK   93  A    between atoms: _241  and  _242
REMARK   94  A    between atoms: _241  and  _244
REMARK   95  A    between atoms: _244  and  _245
REMARK   96  A    between atoms: _250  and  _251
REMARK   97  A    between atoms: _253  and  _255
REMARK   98  A    between atoms: _255  and  _256
REMARK   99  A    between atoms: _255  and  _258
REMARK  100  A    between atoms: _261  and  _263
REMARK  101  A    between atoms: _263  and  _264
REMARK  102  A    between atoms: _263  and  _266
REMARK  103  A    between atoms: _269  and  _271
REMARK  104  A    between atoms: _271  and  _272
REMARK  105  A    between atoms: _271  and  _274
REMARK  106  A    between atoms: _274  and  _275
REMARK  107  A    between atoms: _275  and  _276
REMARK  108  A    between atoms: _279  and  _280
REMARK                            x       y       z     vdW  Elec       q    Type
REMARK                         _______ _______ _______ _____ _____    ______ ____
ROOT
ATOM      1  C   SER A   1       2.748   3.232 -15.184  0.00  0.00    +0.241 C 
ATOM      2  N   VAL A   2       2.372   3.686 -14.008  0.00  0.00    -0.298 N 
ATOM      3  H   VAL A   2       2.249   3.010 -13.227  0.00  0.00    +0.150 HD
ATOM      4  O   SER A   1       2.854   3.944 -16.165  0.00  0.00    -0.274 OA
ENDROOT
BRANCH   1   5
ATOM      5  CA  SER A   1       3.031   1.720 -15.248  0.00  0.00    +0.174 C 
BRANCH   5   6
ATOM      6  N   SER A   1       2.978   1.231 -16.615  0.00  0.00    -0.236 NA
ATOM      7  H   SER A   1       3.841   0.853 -17.055  0.00  0.00    +0.142 HD
ENDBRANCH   5   6
BRANCH   5   8
ATOM      8  CB  SER A   1       4.402   1.387 -14.643  0.00  0.00    +0.163 C 
BRANCH   8   9
ATOM      9  OG  SER A   1       5.468   2.018 -15.361  0.00  0.00    -0.380 OA
ATOM     10  H   SER A   1       5.459   1.709 -16.301  0.00  0.00    +0.211 HD
ENDBRANCH   8   9
ENDBRANCH   5   8
ENDBRANCH   1   5
BRANCH   2  11
ATOM     11  CA  VAL A   2       2.121   5.098 -13.758  0.00  0.00    +0.137 C 
BRANCH  11  12
ATOM     12  CB  VAL A   2       0.701   5.255 -13.263  0.00  0.00    +0.026 C 
ATOM     13  CG2 VAL A   2       0.389   6.713 -12.897  0.00  0.00    +0.002 C 
ATOM     14  CG1 VAL A   2      -0.222   4.732 -14.359  0.00  0.00    +0.002 C 
ENDBRANCH  11  12
BRANCH  11  15
ATOM     15  C   VAL A   2       3.114   5.581 -12.717  0.00  0.00    +0.227 C 
ATOM     16  O   VAL A   2       3.408   4.867 -11.768  0.00  0.00    -0.286 OA
ENDBRANCH  11  15
ENDBRANCH   2  11
TORSDOF 7
REMARK  Name = ../refined-set-2016/4ovg/4ovg_pocket.pdb
REMARK  108 active torsions:
REMARK  status: ('A' for Active; 'I' for Inactive)
REMARK    1  A    between atoms: _1  and  _3
REMARK    2  A    between atoms: _3  and  _4
REMARK    3  A    between atoms: _3  and  _6
REMARK    4  A    between atoms: _6  and  _7
REMARK    5  A    between atoms: _9  and  _11
REMARK    6  A    between atoms: _11  and  _12
REMARK    7  A    between atoms: _11  and  _14
REMARK    8  A    between atoms: _14  and  _15
REMARK    9  A    between atoms: _18  and  _20
REMARK   10  A    between atoms: _20  and  _21
REMARK   11  A    between atoms: _20  and  _23
REMARK   12  A    between atoms: _23  and  _24
REMARK   13  A    between atoms: _24  and  _25
REMARK   14  A    between atoms: _25  and  _26
REMARK   15  A    between atoms: _35  and  _37
REMARK   16  A    between atoms: _37  and  _38
REMARK   17  A    between atoms: _37  and  _40
REMARK   18  A    between atoms: _40  and  _41
REMARK   19  A    between atoms: _46  and  _47
REMARK   20  A    between atoms: _49  and  _51
REMARK   21  A    between atoms: _51  and  _52
REMARK   22  A    between atoms: _51  and  _54
REMARK   23  A    between atoms: _54  and  _55
REMARK   24  A    between atoms: _58  and  _60
REMARK   25  A    between atoms: _60  and  _61
REMARK   26  A    between atoms: _64  and  _66
REMARK   27  A    between atoms: _66  and  _67
REMARK   28  A    between atoms: _66  and  _69
REMARK   29  A    between atoms: _69  and  _70
REMARK   30  A    between atoms: _73  and  _75
REMARK   31  A    between atoms: _75  and  _76
REMARK   32  A    between atoms: _75  and  _78
REMARK   33  A    between atoms: _78  and  _79
REMARK   34  A    between atoms: _82  and  _84
REMARK   35  A    between atoms: _84  and  _85
REMARK   36  A    between atoms: _87  and  _89
REMARK   37  A    between atoms: _89  and  _90
REMARK   38  A    between atoms: _89  and  _92
REMARK   39  A    between atoms: _92  and  _93
REMARK   40  A    between atoms: _98  and  _100
REMARK   41  A    between atoms: _100  and  _101
REMARK   42  A    between atoms: _100  and  _103
REMARK   43  A    between atoms: _103  and  _104
REMARK   44  A    between atoms: _104  and  _105
REMARK   45  A    between atoms: _105  and  _106
REMARK   46  A    between atoms: _115  and  _117
REMARK   47  A    between atoms: _117  and  _118
REMARK   48  A    between atoms: _117  and  _120
REMARK   49  A    between atoms: _120  and  _121
REMARK   50  A    between atoms: _124  and  _126
REMARK   51  A    between atoms: _126  and  _127
REMARK   52  A    between atoms: _130  and  _132
REMARK   53  A    between atoms: _132  and  _133
REMARK   54  A    between atoms: _132  and  _135
REMARK   55  A    between atoms: _135  and  _136
REMARK   56  A    between atoms: _136  and  _137
REMARK   57  A    between atoms: _137  and  _138
REMARK   58  A    between atoms: _147  and  _149
REMARK   59  A    between atoms: _149  and  _150
REMARK   60  A    between atoms: _149  and  _152
REMARK   61  A    between atoms: _152  and  _153
REMARK   62  A    between atoms: _160  and  _161
REMARK   63  A    between atoms: _166  and  _168
REMARK   64  A    between atoms: _168  and  _169
REMARK   65  A    between atoms: _168  and  _171
REMARK   66  A    between atoms: _171  and  _172
REMARK   67  A    between atoms: _175  and  _177
REMARK   68  A    between atoms: _177  and  _178
REMARK   69  A    between atoms: _177  and  _180
REMARK   70  A    between atoms: _180  and  _181
REMARK   71  A    between atoms: _186  and  _187
REMARK   72  A    between atoms: _189  and  _191
REMARK   73  A    between atoms: _191  and  _192
REMARK   74  A    between atoms: _191  and  _194
REMARK   75  A    between atoms: _194  and  _195
REMARK   76  A    between atoms: _195  and  _196
REMARK   77  A    between atoms: _196  and  _197
REMARK   78  A    between atoms: _206  and  _208
REMARK   79  A    between atoms: _208  and  _209
REMARK   80  A    between atoms: _208  and  _211
REMARK   81  A    between atoms: _214  and  _216
REMARK   82  A    between atoms: _216  and  _217
REMARK   83  A    between atoms: _216  and  _219
REMARK   84  A    between atoms: _219  and  _220
REMARK   85  A    between atoms: _223  and  _225
REMARK   86  A    between atoms: _225  and  _226
REMARK   87  A    between atoms: _225  and  _228
REMARK   88  A    between atoms: _228  and  _229
REMARK   89  A    between atoms: _231  and  _233
REMARK   90  A    between atoms: _233  and  _234
REMARK   91  A    between atoms: _233  and  _236
REMARK   92  A    between atoms: _239  and  _241
REMARK   93  A    between atoms: _241  and  _242
REMARK   94  A    between atoms: _241  and  _244
REMARK   95  A    between atoms: _244  and  _245
REMARK   96  A    between atoms: _250  and  _251
REMARK   97  A    between atoms: _253  and  _255
REMARK   98  A    between atoms: _255  and  _256
REMARK   99  A    between atoms: _255  and  _258
REMARK  100  A    between atoms: _261  and  _263
REMARK  101  A    between atoms: _263  and  _264
REMARK  102  A    between atoms: _263  and  _266
REMARK  103  A    between atoms: _269  and  _271
REMARK  104  A    between atoms: _271  and  _272
REMARK  105  A    between atoms: _271  and  _274
REMARK  106  A    between atoms: _274  and  _275
REMARK  107  A    between atoms: _275  and  _276
REMARK  108  A    between atoms: _279  and  _280
REMARK                            x       y       z     vdW  Elec       q    Type
REMARK                         _______ _______ _______ _____ _____    ______ ____
ROOT
ATOM      1  C   VAL A   2       4.667   2.496  -9.225  0.00  0.00    +0.241 C 
ATOM      2  O   VAL A   2       4.968   1.676  -8.343  0.00  0.00    -0.273 OA
ATOM      3  N   VAL A   3       3.498   2.506  -9.870  0.00  0.00    -0.297 N 
ATOM      4  H   VAL A   3       3.303   3.285 -10.531  0.00  0.00    +0.150 HD
ENDROOT
BRANCH   1   5
ATOM      5  CA  VAL A   2       5.640   3.585  -9.629  0.00  0.00    +0.148 C 
BRANCH   5   7
ATOM      6  C   TYR A   1       5.941   5.613  -8.329  0.00  0.00    +0.239 C 
ATOM      7  N   VAL A   2       6.125   4.301  -8.451  0.00  0.00    -0.297 N 
ATOM      8  H   VAL A   2       6.620   3.779  -7.700  0.00  0.00    +0.150 HD
ATOM      9  O   TYR A   1       5.406   6.310  -9.199  0.00  0.00    -0.274 OA
BRANCH   6  10
ATOM     10  CA  TYR A   1       6.434   6.223  -7.063  0.00  0.00    +0.149 C 
BRANCH  10  11
ATOM     11  N   TYR A   1       7.039   7.523  -7.362  0.00  0.00    -0.238 NA
ATOM     12  H   TYR A   1       6.490   8.209  -7.919  0.00  0.00    +0.142 HD
ENDBRANCH  10  11
BRANCH  10  13
ATOM     13  CB  TYR A   1       5.253   6.417  -6.097  0.00  0.00    +0.053 C 
BRANCH  13  14
ATOM     14  CG  TYR A   1       5.736   7.053  -4.837  0.00  0.00    -0.020 A 
ATOM     15  CD2 TYR A   1       6.225   6.271  -3.789  0.00  0.00    -0.001 A 
ATOM     16  CE2 TYR A   1       6.762   6.846  -2.656  0.00  0.00    +0.036 A 
ATOM     17  CZ  TYR A   1       6.825   8.223  -2.559  0.00  0.00    +0.134 A 
ATOM     18  CE1 TYR A   1       6.392   9.017  -3.600  0.00  0.00    +0.036 A 
ATOM     19  CD1 TYR A   1       5.877   8.436  -4.745  0.00  0.00    -0.001 A 
BRANCH  17  20
ATOM     20  OH  TYR A   1       7.371   8.781  -1.406  0.00  0.00    -0.506 OA
ATOM     21  HH  TYR A   1       7.621   8.058  -0.778  0.00  0.00    +0.292 HD
ENDBRANCH  17  20
ENDBRANCH  13  14
ENDBRANCH  10  13
ENDBRANCH   6  10
ENDBRANCH   5   7
BRANCH   5  22
ATOM     22  CB  VAL A   2       6.777   2.977 -10.466  0.00  0.00    +0.027 C 
ATOM     23  CG2 VAL A   2       7.782   4.050 -10.833  0.00  0.00    +0.002 C 
ATOM     24  CG1 VAL A   2       6.229   2.347 -11.740  0.00  0.00    +0.002 C 
ENDBRANCH   5  22
ENDBRANCH   1   5
BRANCH   3  25
ATOM     25  CA  VAL A   3       2.491   1.485  -9.693  0.00  0.00    +0.149 C 
BRANCH  25  26
ATOM     26  C   VAL A   3       2.130   0.859 -11.036  0.00  0.00    +0.241 C 
ATOM     27  N   MET A   4       1.981  -0.467 -11.076  0.00  0.00    -0.297 N 
ATOM     28  H   MET A   4       2.163  -1.014 -10.210  0.00  0.00    +0.150 HD
ATOM     29  O   VAL A   3       1.998   1.570 -12.005  0.00  0.00    -0.273 OA
BRANCH  27  30
ATOM     30  CA  MET A   4       1.566  -1.198 -12.303  0.00  0.00    +0.150 C 
BRANCH  30  31
ATOM     31  C   MET A   4       0.060  -1.213 -12.512  0.00  0.00    +0.244 C 
ATOM     32  O   MET A   4      -0.675  -1.316 -11.554  0.00  0.00    -0.273 OA
ATOM     33  N   PRO A   5      -0.407  -1.136 -13.776  0.00  0.00    -0.273 N 
ATOM     34  CA  PRO A   5      -1.832  -1.230 -13.955  0.00  0.00    +0.140 C 
ATOM     35  CB  PRO A   5      -2.042  -0.871 -15.423  0.00  0.00    +0.030 C 
ATOM     36  CG  PRO A   5      -0.773  -1.230 -16.106  0.00  0.00    +0.024 C 
ATOM     37  CD  PRO A   5       0.313  -1.340 -15.044  0.00  0.00    +0.094 C 
BRANCH  34  38
ATOM     38  C   PRO A   5      -2.302  -2.645 -13.629  0.00  0.00    +0.227 C 
ATOM     39  O   PRO A   5      -1.511  -3.585 -13.616  0.00  0.00    -0.286 OA
ENDBRANCH  34  38
ENDBRANCH  30  31
BRANCH  30  40
ATOM     40  CB  MET A   4       2.020  -2.650 -12.217  0.00  0.00    +0.041 C 
BRANCH  40  41
ATOM     41  CG  MET A   4       3.515  -2.811 -12.241  0.00  0.00    +0.060 C 
BRANCH  41  42
ATOM     42  SD  MET A   4       4.139  -2.181 -13.810  0.00  0.00    -0.139 S 
ATOM     43  CE  MET A   4       3.696  -3.536 -14.904  0.00  0.00    +0.069 C 
ENDBRANCH  41  42
ENDBRANCH  40  41
ENDBRANCH  30  40
ENDBRANCH  27  30
ENDBRANCH  25  26
BRANCH  25  44
ATOM     44  CB  VAL A   3       1.242   2.096  -9.024  0.00  0.00    +0.027 C 
ATOM     45  CG2 VAL A   3       1.624   2.647  -7.675  0.00  0.00    +0.002 C 
ATOM     46  CG1 VAL A   3       0.163   1.054  -8.818  0.00  0.00    +0.002 C 
ENDBRANCH  25  44
ENDBRANCH   3  25
TORSDOF 17
REMARK  Name = ../refined-set-2016/4ovg/4ovg_pocket.pdb
REMARK  108 active torsions:
REMARK  status: ('A' for Active; 'I' for Inactive)
REMARK    1  A    between atoms: _1  and  _3
REMARK    2  A    between atoms: _3  and  _4
REMARK    3  A    between atoms: _3  and  _6
REMARK    4  A    between atoms: _6  and  _7
REMARK    5  A    between atoms: _9  and  _11
REMARK    6  A    between atoms: _11  and  _12
REMARK    7  A    between atoms: _11  and  _14
REMARK    8  A    between atoms: _14  and  _15
REMARK    9  A    between atoms: _18  and  _20
REMARK   10  A    between atoms: _20  and  _21
REMARK   11  A    between atoms: _20  and  _23
REMARK   12  A    between atoms: _23  and  _24
REMARK   13  A    between atoms: _24  and  _25
REMARK   14  A    between atoms: _25  and  _26
REMARK   15  A    between atoms: _35  and  _37
REMARK   16  A    between atoms: _37  and  _38
REMARK   17  A    between atoms: _37  and  _40
REMARK   18  A    between atoms: _40  and  _41
REMARK   19  A    between atoms: _46  and  _47
REMARK   20  A    between atoms: _49  and  _51
REMARK   21  A    between atoms: _51  and  _52
REMARK   22  A    between atoms: _51  and  _54
REMARK   23  A    between atoms: _54  and  _55
REMARK   24  A    between atoms: _58  and  _60
REMARK   25  A    between atoms: _60  and  _61
REMARK   26  A    between atoms: _64  and  _66
REMARK   27  A    between atoms: _66  and  _67
REMARK   28  A    between atoms: _66  and  _69
REMARK   29  A    between atoms: _69  and  _70
REMARK   30  A    between atoms: _73  and  _75
REMARK   31  A    between atoms: _75  and  _76
REMARK   32  A    between atoms: _75  and  _78
REMARK   33  A    between atoms: _78  and  _79
REMARK   34  A    between atoms: _82  and  _84
REMARK   35  A    between atoms: _84  and  _85
REMARK   36  A    between atoms: _87  and  _89
REMARK   37  A    between atoms: _89  and  _90
REMARK   38  A    between atoms: _89  and  _92
REMARK   39  A    between atoms: _92  and  _93
REMARK   40  A    between atoms: _98  and  _100
REMARK   41  A    between atoms: _100  and  _101
REMARK   42  A    between atoms: _100  and  _103
REMARK   43  A    between atoms: _103  and  _104
REMARK   44  A    between atoms: _104  and  _105
REMARK   45  A    between atoms: _105  and  _106
REMARK   46  A    between atoms: _115  and  _117
REMARK   47  A    between atoms: _117  and  _118
REMARK   48  A    between atoms: _117  and  _120
REMARK   49  A    between atoms: _120  and  _121
REMARK   50  A    between atoms: _124  and  _126
REMARK   51  A    between atoms: _126  and  _127
REMARK   52  A    between atoms: _130  and  _132
REMARK   53  A    between atoms: _132  and  _133
REMARK   54  A    between atoms: _132  and  _135
REMARK   55  A    between atoms: _135  and  _136
REMARK   56  A    between atoms: _136  and  _137
REMARK   57  A    between atoms: _137  and  _138
REMARK   58  A    between atoms: _147  and  _149
REMARK   59  A    between atoms: _149  and  _150
REMARK   60  A    between atoms: _149  and  _152
REMARK   61  A    between atoms: _152  and  _153
REMARK   62  A    between atoms: _160  and  _161
REMARK   63  A    between atoms: _166  and  _168
REMARK   64  A    between atoms: _168  and  _169
REMARK   65  A    between atoms: _168  and  _171
REMARK   66  A    between atoms: _171  and  _172
REMARK   67  A    between atoms: _175  and  _177
REMARK   68  A    between atoms: _177  and  _178
REMARK   69  A    between atoms: _177  and  _180
REMARK   70  A    between atoms: _180  and  _181
REMARK   71  A    between atoms: _186  and  _187
REMARK   72  A    between atoms: _189  and  _191
REMARK   73  A    between atoms: _191  and  _192
REMARK   74  A    between atoms: _191  and  _194
REMARK   75  A    between atoms: _194  and  _195
REMARK   76  A    between atoms: _195  and  _196
REMARK   77  A    between atoms: _196  and  _197
REMARK   78  A    between atoms: _206  and  _208
REMARK   79  A    between atoms: _208  and  _209
REMARK   80  A    between atoms: _208  and  _211
REMARK   81  A    between atoms: _214  and  _216
REMARK   82  A    between atoms: _216  and  _217
REMARK   83  A    between atoms: _216  and  _219
REMARK   84  A    between atoms: _219  and  _220
REMARK   85  A    between atoms: _223  and  _225
REMARK   86  A    between atoms: _225  and  _226
REMARK   87  A    between atoms: _225  and  _228
REMARK   88  A    between atoms: _228  and  _229
REMARK   89  A    between atoms: _231  and  _233
REMARK   90  A    between atoms: _233  and  _234
REMARK   91  A    between atoms: _233  and  _236
REMARK   92  A    between atoms: _239  and  _241
REMARK   93  A    between atoms: _241  and  _242
REMARK   94  A    between atoms: _241  and  _244
REMARK   95  A    between atoms: _244  and  _245
REMARK   96  A    between atoms: _250  and  _251
REMARK   97  A    between atoms: _253  and  _255
REMARK   98  A    between atoms: _255  and  _256
REMARK   99  A    between atoms: _255  and  _258
REMARK  100  A    between atoms: _261  and  _263
REMARK  101  A    between atoms: _263  and  _264
REMARK  102  A    between atoms: _263  and  _266
REMARK  103  A    between atoms: _269  and  _271
REMARK  104  A    between atoms: _271  and  _272
REMARK  105  A    between atoms: _271  and  _274
REMARK  106  A    between atoms: _274  and  _275
REMARK  107  A    between atoms: _275  and  _276
REMARK  108  A    between atoms: _279  and  _280
REMARK                            x       y       z     vdW  Elec       q    Type
REMARK                         _______ _______ _______ _____ _____    ______ ____
ROOT
ATOM      1  O   HOH     1      12.824  -3.172  -1.771  0.00  0.00    +0.000 OA
ENDROOT
TORSDOF 0
REMARK  Name = ../refined-set-2016/4ovg/4ovg_pocket.pdb
REMARK  108 active torsions:
REMARK  status: ('A' for Active; 'I' for Inactive)
REMARK    1  A    between atoms: _1  and  _3
REMARK    2  A    between atoms: _3  and  _4
REMARK    3  A    between atoms: _3  and  _6
REMARK    4  A    between atoms: _6  and  _7
REMARK    5  A    between atoms: _9  and  _11
REMARK    6  A    between atoms: _11  and  _12
REMARK    7  A    between atoms: _11  and  _14
REMARK    8  A    between atoms: _14  and  _15
REMARK    9  A    between atoms: _18  and  _20
REMARK   10  A    between atoms: _20  and  _21
REMARK   11  A    between atoms: _20  and  _23
REMARK   12  A    between atoms: _23  and  _24
REMARK   13  A    between atoms: _24  and  _25
REMARK   14  A    between atoms: _25  and  _26
REMARK   15  A    between atoms: _35  and  _37
REMARK   16  A    between atoms: _37  and  _38
REMARK   17  A    between atoms: _37  and  _40
REMARK   18  A    between atoms: _40  and  _41
REMARK   19  A    between atoms: _46  and  _47
REMARK   20  A    between atoms: _49  and  _51
REMARK   21  A    between atoms: _51  and  _52
REMARK   22  A    between atoms: _51  and  _54
REMARK   23  A    between atoms: _54  and  _55
REMARK   24  A    between atoms: _58  and  _60
REMARK   25  A    between atoms: _60  and  _61
REMARK   26  A    between atoms: _64  and  _66
REMARK   27  A    between atoms: _66  and  _67
REMARK   28  A    between atoms: _66  and  _69
REMARK   29  A    between atoms: _69  and  _70
REMARK   30  A    between atoms: _73  and  _75
REMARK   31  A    between atoms: _75  and  _76
REMARK   32  A    between atoms: _75  and  _78
REMARK   33  A    between atoms: _78  and  _79
REMARK   34  A    between atoms: _82  and  _84
REMARK   35  A    between atoms: _84  and  _85
REMARK   36  A    between atoms: _87  and  _89
REMARK   37  A    between atoms: _89  and  _90
REMARK   38  A    between atoms: _89  and  _92
REMARK   39  A    between atoms: _92  and  _93
REMARK   40  A    between atoms: _98  and  _100
REMARK   41  A    between atoms: _100  and  _101
REMARK   42  A    between atoms: _100  and  _103
REMARK   43  A    between atoms: _103  and  _104
REMARK   44  A    between atoms: _104  and  _105
REMARK   45  A    between atoms: _105  and  _106
REMARK   46  A    between atoms: _115  and  _117
REMARK   47  A    between atoms: _117  and  _118
REMARK   48  A    between atoms: _117  and  _120
REMARK   49  A    between atoms: _120  and  _121
REMARK   50  A    between atoms: _124  and  _126
REMARK   51  A    between atoms: _126  and  _127
REMARK   52  A    between atoms: _130  and  _132
REMARK   53  A    between atoms: _132  and  _133
REMARK   54  A    between atoms: _132  and  _135
REMARK   55  A    between atoms: _135  and  _136
REMARK   56  A    between atoms: _136  and  _137
REMARK   57  A    between atoms: _137  and  _138
REMARK   58  A    between atoms: _147  and  _149
REMARK   59  A    between atoms: _149  and  _150
REMARK   60  A    between atoms: _149  and  _152
REMARK   61  A    between atoms: _152  and  _153
REMARK   62  A    between atoms: _160  and  _161
REMARK   63  A    between atoms: _166  and  _168
REMARK   64  A    between atoms: _168  and  _169
REMARK   65  A    between atoms: _168  and  _171
REMARK   66  A    between atoms: _171  and  _172
REMARK   67  A    between atoms: _175  and  _177
REMARK   68  A    between atoms: _177  and  _178
REMARK   69  A    between atoms: _177  and  _180
REMARK   70  A    between atoms: _180  and  _181
REMARK   71  A    between atoms: _186  and  _187
REMARK   72  A    between atoms: _189  and  _191
REMARK   73  A    between atoms: _191  and  _192
REMARK   74  A    between atoms: _191  and  _194
REMARK   75  A    between atoms: _194  and  _195
REMARK   76  A    between atoms: _195  and  _196
REMARK   77  A    between atoms: _196  and  _197
REMARK   78  A    between atoms: _206  and  _208
REMARK   79  A    between atoms: _208  and  _209
REMARK   80  A    between atoms: _208  and  _211
REMARK   81  A    between atoms: _214  and  _216
REMARK   82  A    between atoms: _216  and  _217
REMARK   83  A    between atoms: _216  and  _219
REMARK   84  A    between atoms: _219  and  _220
REMARK   85  A    between atoms: _223  and  _225
REMARK   86  A    between atoms: _225  and  _226
REMARK   87  A    between atoms: _225  and  _228
REMARK   88  A    between atoms: _228  and  _229
REMARK   89  A    between atoms: _231  and  _233
REMARK   90  A    between atoms: _233  and  _234
REMARK   91  A    between atoms: _233  and  _236
REMARK   92  A    between atoms: _239  and  _241
REMARK   93  A    between atoms: _241  and  _242
REMARK   94  A    between atoms: _241  and  _244
REMARK   95  A    between atoms: _244  and  _245
REMARK   96  A    between atoms: _250  and  _251
REMARK   97  A    between atoms: _253  and  _255
REMARK   98  A    between atoms: _255  and  _256
REMARK   99  A    between atoms: _255  and  _258
REMARK  100  A    between atoms: _261  and  _263
REMARK  101  A    between atoms: _263  and  _264
REMARK  102  A    between atoms: _263  and  _266
REMARK  103  A    between atoms: _269  and  _271
REMARK  104  A    between atoms: _271  and  _272
REMARK  105  A    between atoms: _271  and  _274
REMARK  106  A    between atoms: _274  and  _275
REMARK  107  A    between atoms: _275  and  _276
REMARK  108  A    between atoms: _279  and  _280
REMARK                            x       y       z     vdW  Elec       q    Type
REMARK                         _______ _______ _______ _____ _____    ______ ____
ROOT
ATOM      1  O   HOH     1       5.150   2.803  -4.245  0.00  0.00    +0.000 OA
ENDROOT
TORSDOF 0
REMARK  Name = ../refined-set-2016/4ovg/4ovg_pocket.pdb
REMARK  108 active torsions:
REMARK  status: ('A' for Active; 'I' for Inactive)
REMARK    1  A    between atoms: _1  and  _3
REMARK    2  A    between atoms: _3  and  _4
REMARK    3  A    between atoms: _3  and  _6
REMARK    4  A    between atoms: _6  and  _7
REMARK    5  A    between atoms: _9  and  _11
REMARK    6  A    between atoms: _11  and  _12
REMARK    7  A    between atoms: _11  and  _14
REMARK    8  A    between atoms: _14  and  _15
REMARK    9  A    between atoms: _18  and  _20
REMARK   10  A    between atoms: _20  and  _21
REMARK   11  A    between atoms: _20  and  _23
REMARK   12  A    between atoms: _23  and  _24
REMARK   13  A    between atoms: _24  and  _25
REMARK   14  A    between atoms: _25  and  _26
REMARK   15  A    between atoms: _35  and  _37
REMARK   16  A    between atoms: _37  and  _38
REMARK   17  A    between atoms: _37  and  _40
REMARK   18  A    between atoms: _40  and  _41
REMARK   19  A    between atoms: _46  and  _47
REMARK   20  A    between atoms: _49  and  _51
REMARK   21  A    between atoms: _51  and  _52
REMARK   22  A    between atoms: _51  and  _54
REMARK   23  A    between atoms: _54  and  _55
REMARK   24  A    between atoms: _58  and  _60
REMARK   25  A    between atoms: _60  and  _61
REMARK   26  A    between atoms: _64  and  _66
REMARK   27  A    between atoms: _66  and  _67
REMARK   28  A    between atoms: _66  and  _69
REMARK   29  A    between atoms: _69  and  _70
REMARK   30  A    between atoms: _73  and  _75
REMARK   31  A    between atoms: _75  and  _76
REMARK   32  A    between atoms: _75  and  _78
REMARK   33  A    between atoms: _78  and  _79
REMARK   34  A    between atoms: _82  and  _84
REMARK   35  A    between atoms: _84  and  _85
REMARK   36  A    between atoms: _87  and  _89
REMARK   37  A    between atoms: _89  and  _90
REMARK   38  A    between atoms: _89  and  _92
REMARK   39  A    between atoms: _92  and  _93
REMARK   40  A    between atoms: _98  and  _100
REMARK   41  A    between atoms: _100  and  _101
REMARK   42  A    between atoms: _100  and  _103
REMARK   43  A    between atoms: _103  and  _104
REMARK   44  A    between atoms: _104  and  _105
REMARK   45  A    between atoms: _105  and  _106
REMARK   46  A    between atoms: _115  and  _117
REMARK   47  A    between atoms: _117  and  _118
REMARK   48  A    between atoms: _117  and  _120
REMARK   49  A    between atoms: _120  and  _121
REMARK   50  A    between atoms: _124  and  _126
REMARK   51  A    between atoms: _126  and  _127
REMARK   52  A    between atoms: _130  and  _132
REMARK   53  A    between atoms: _132  and  _133
REMARK   54  A    between atoms: _132  and  _135
REMARK   55  A    between atoms: _135  and  _136
REMARK   56  A    between atoms: _136  and  _137
REMARK   57  A    between atoms: _137  and  _138
REMARK   58  A    between atoms: _147  and  _149
REMARK   59  A    between atoms: _149  and  _150
REMARK   60  A    between atoms: _149  and  _152
REMARK   61  A    between atoms: _152  and  _153
REMARK   62  A    between atoms: _160  and  _161
REMARK   63  A    between atoms: _166  and  _168
REMARK   64  A    between atoms: _168  and  _169
REMARK   65  A    between atoms: _168  and  _171
REMARK   66  A    between atoms: _171  and  _172
REMARK   67  A    between atoms: _175  and  _177
REMARK   68  A    between atoms: _177  and  _178
REMARK   69  A    between atoms: _177  and  _180
REMARK   70  A    between atoms: _180  and  _181
REMARK   71  A    between atoms: _186  and  _187
REMARK   72  A    between atoms: _189  and  _191
REMARK   73  A    between atoms: _191  and  _192
REMARK   74  A    between atoms: _191  and  _194
REMARK   75  A    between atoms: _194  and  _195
REMARK   76  A    between atoms: _195  and  _196
REMARK   77  A    between atoms: _196  and  _197
REMARK   78  A    between atoms: _206  and  _208
REMARK   79  A    between atoms: _208  and  _209
REMARK   80  A    between atoms: _208  and  _211
REMARK   81  A    between atoms: _214  and  _216
REMARK   82  A    between atoms: _216  and  _217
REMARK   83  A    between atoms: _216  and  _219
REMARK   84  A    between atoms: _219  and  _220
REMARK   85  A    between atoms: _223  and  _225
REMARK   86  A    between atoms: _225  and  _226
REMARK   87  A    between atoms: _225  and  _228
REMARK   88  A    between atoms: _228  and  _229
REMARK   89  A    between atoms: _231  and  _233
REMARK   90  A    between atoms: _233  and  _234
REMARK   91  A    between atoms: _233  and  _236
REMARK   92  A    between atoms: _239  and  _241
REMARK   93  A    between atoms: _241  and  _242
REMARK   94  A    between atoms: _241  and  _244
REMARK   95  A    between atoms: _244  and  _245
REMARK   96  A    between atoms: _250  and  _251
REMARK   97  A    between atoms: _253  and  _255
REMARK   98  A    between atoms: _255  and  _256
REMARK   99  A    between atoms: _255  and  _258
REMARK  100  A    between atoms: _261  and  _263
REMARK  101  A    between atoms: _263  and  _264
REMARK  102  A    between atoms: _263  and  _266
REMARK  103  A    between atoms: _269  and  _271
REMARK  104  A    between atoms: _271  and  _272
REMARK  105  A    between atoms: _271  and  _274
REMARK  106  A    between atoms: _274  and  _275
REMARK  107  A    between atoms: _275  and  _276
REMARK  108  A    between atoms: _279  and  _280
REMARK                            x       y       z     vdW  Elec       q    Type
REMARK                         _______ _______ _______ _____ _____    ______ ____
ROOT
ATOM      1  O   HOH     1       8.492 -13.857  -5.361  0.00  0.00    +0.000 OA
ENDROOT
TORSDOF 0
REMARK  Name = ../refined-set-2016/4ovg/4ovg_pocket.pdb
REMARK  108 active torsions:
REMARK  status: ('A' for Active; 'I' for Inactive)
REMARK    1  A    between atoms: _1  and  _3
REMARK    2  A    between atoms: _3  and  _4
REMARK    3  A    between atoms: _3  and  _6
REMARK    4  A    between atoms: _6  and  _7
REMARK    5  A    between atoms: _9  and  _11
REMARK    6  A    between atoms: _11  and  _12
REMARK    7  A    between atoms: _11  and  _14
REMARK    8  A    between atoms: _14  and  _15
REMARK    9  A    between atoms: _18  and  _20
REMARK   10  A    between atoms: _20  and  _21
REMARK   11  A    between atoms: _20  and  _23
REMARK   12  A    between atoms: _23  and  _24
REMARK   13  A    between atoms: _24  and  _25
REMARK   14  A    between atoms: _25  and  _26
REMARK   15  A    between atoms: _35  and  _37
REMARK   16  A    between atoms: _37  and  _38
REMARK   17  A    between atoms: _37  and  _40
REMARK   18  A    between atoms: _40  and  _41
REMARK   19  A    between atoms: _46  and  _47
REMARK   20  A    between atoms: _49  and  _51
REMARK   21  A    between atoms: _51  and  _52
REMARK   22  A    between atoms: _51  and  _54
REMARK   23  A    between atoms: _54  and  _55
REMARK   24  A    between atoms: _58  and  _60
REMARK   25  A    between atoms: _60  and  _61
REMARK   26  A    between atoms: _64  and  _66
REMARK   27  A    between atoms: _66  and  _67
REMARK   28  A    between atoms: _66  and  _69
REMARK   29  A    between atoms: _69  and  _70
REMARK   30  A    between atoms: _73  and  _75
REMARK   31  A    between atoms: _75  and  _76
REMARK   32  A    between atoms: _75  and  _78
REMARK   33  A    between atoms: _78  and  _79
REMARK   34  A    between atoms: _82  and  _84
REMARK   35  A    between atoms: _84  and  _85
REMARK   36  A    between atoms: _87  and  _89
REMARK   37  A    between atoms: _89  and  _90
REMARK   38  A    between atoms: _89  and  _92
REMARK   39  A    between atoms: _92  and  _93
REMARK   40  A    between atoms: _98  and  _100
REMARK   41  A    between atoms: _100  and  _101
REMARK   42  A    between atoms: _100  and  _103
REMARK   43  A    between atoms: _103  and  _104
REMARK   44  A    between atoms: _104  and  _105
REMARK   45  A    between atoms: _105  and  _106
REMARK   46  A    between atoms: _115  and  _117
REMARK   47  A    between atoms: _117  and  _118
REMARK   48  A    between atoms: _117  and  _120
REMARK   49  A    between atoms: _120  and  _121
REMARK   50  A    between atoms: _124  and  _126
REMARK   51  A    between atoms: _126  and  _127
REMARK   52  A    between atoms: _130  and  _132
REMARK   53  A    between atoms: _132  and  _133
REMARK   54  A    between atoms: _132  and  _135
REMARK   55  A    between atoms: _135  and  _136
REMARK   56  A    between atoms: _136  and  _137
REMARK   57  A    between atoms: _137  and  _138
REMARK   58  A    between atoms: _147  and  _149
REMARK   59  A    between atoms: _149  and  _150
REMARK   60  A    between atoms: _149  and  _152
REMARK   61  A    between atoms: _152  and  _153
REMARK   62  A    between atoms: _160  and  _161
REMARK   63  A    between atoms: _166  and  _168
REMARK   64  A    between atoms: _168  and  _169
REMARK   65  A    between atoms: _168  and  _171
REMARK   66  A    between atoms: _171  and  _172
REMARK   67  A    between atoms: _175  and  _177
REMARK   68  A    between atoms: _177  and  _178
REMARK   69  A    between atoms: _177  and  _180
REMARK   70  A    between atoms: _180  and  _181
REMARK   71  A    between atoms: _186  and  _187
REMARK   72  A    between atoms: _189  and  _191
REMARK   73  A    between atoms: _191  and  _192
REMARK   74  A    between atoms: _191  and  _194
REMARK   75  A    between atoms: _194  and  _195
REMARK   76  A    between atoms: _195  and  _196
REMARK   77  A    between atoms: _196  and  _197
REMARK   78  A    between atoms: _206  and  _208
REMARK   79  A    between atoms: _208  and  _209
REMARK   80  A    between atoms: _208  and  _211
REMARK   81  A    between atoms: _214  and  _216
REMARK   82  A    between atoms: _216  and  _217
REMARK   83  A    between atoms: _216  and  _219
REMARK   84  A    between atoms: _219  and  _220
REMARK   85  A    between atoms: _223  and  _225
REMARK   86  A    between atoms: _225  and  _226
REMARK   87  A    between atoms: _225  and  _228
REMARK   88  A    between atoms: _228  and  _229
REMARK   89  A    between atoms: _231  and  _233
REMARK   90  A    between atoms: _233  and  _234
REMARK   91  A    between atoms: _233  and  _236
REMARK   92  A    between atoms: _239  and  _241
REMARK   93  A    between atoms: _241  and  _242
REMARK   94  A    between atoms: _241  and  _244
REMARK   95  A    between atoms: _244  and  _245
REMARK   96  A    between atoms: _250  and  _251
REMARK   97  A    between atoms: _253  and  _255
REMARK   98  A    between atoms: _255  and  _256
REMARK   99  A    between atoms: _255  and  _258
REMARK  100  A    between atoms: _261  and  _263
REMARK  101  A    between atoms: _263  and  _264
REMARK  102  A    between atoms: _263  and  _266
REMARK  103  A    between atoms: _269  and  _271
REMARK  104  A    between atoms: _271  and  _272
REMARK  105  A    between atoms: _271  and  _274
REMARK  106  A    between atoms: _274  and  _275
REMARK  107  A    between atoms: _275  and  _276
REMARK  108  A    between atoms: _279  and  _280
REMARK                            x       y       z     vdW  Elec       q    Type
REMARK                         _______ _______ _______ _____ _____    ______ ____
ROOT
ATOM      1  O   HOH     1      15.885  -3.829 -13.172  0.00  0.00    +0.000 OA
ENDROOT
TORSDOF 0
REMARK  Name = ../refined-set-2016/4ovg/4ovg_pocket.pdb
REMARK  108 active torsions:
REMARK  status: ('A' for Active; 'I' for Inactive)
REMARK    1  A    between atoms: _1  and  _3
REMARK    2  A    between atoms: _3  and  _4
REMARK    3  A    between atoms: _3  and  _6
REMARK    4  A    between atoms: _6  and  _7
REMARK    5  A    between atoms: _9  and  _11
REMARK    6  A    between atoms: _11  and  _12
REMARK    7  A    between atoms: _11  and  _14
REMARK    8  A    between atoms: _14  and  _15
REMARK    9  A    between atoms: _18  and  _20
REMARK   10  A    between atoms: _20  and  _21
REMARK   11  A    between atoms: _20  and  _23
REMARK   12  A    between atoms: _23  and  _24
REMARK   13  A    between atoms: _24  and  _25
REMARK   14  A    between atoms: _25  and  _26
REMARK   15  A    between atoms: _35  and  _37
REMARK   16  A    between atoms: _37  and  _38
REMARK   17  A    between atoms: _37  and  _40
REMARK   18  A    between atoms: _40  and  _41
REMARK   19  A    between atoms: _46  and  _47
REMARK   20  A    between atoms: _49  and  _51
REMARK   21  A    between atoms: _51  and  _52
REMARK   22  A    between atoms: _51  and  _54
REMARK   23  A    between atoms: _54  and  _55
REMARK   24  A    between atoms: _58  and  _60
REMARK   25  A    between atoms: _60  and  _61
REMARK   26  A    between atoms: _64  and  _66
REMARK   27  A    between atoms: _66  and  _67
REMARK   28  A    between atoms: _66  and  _69
REMARK   29  A    between atoms: _69  and  _70
REMARK   30  A    between atoms: _73  and  _75
REMARK   31  A    between atoms: _75  and  _76
REMARK   32  A    between atoms: _75  and  _78
REMARK   33  A    between atoms: _78  and  _79
REMARK   34  A    between atoms: _82  and  _84
REMARK   35  A    between atoms: _84  and  _85
REMARK   36  A    between atoms: _87  and  _89
REMARK   37  A    between atoms: _89  and  _90
REMARK   38  A    between atoms: _89  and  _92
REMARK   39  A    between atoms: _92  and  _93
REMARK   40  A    between atoms: _98  and  _100
REMARK   41  A    between atoms: _100  and  _101
REMARK   42  A    between atoms: _100  and  _103
REMARK   43  A    between atoms: _103  and  _104
REMARK   44  A    between atoms: _104  and  _105
REMARK   45  A    between atoms: _105  and  _106
REMARK   46  A    between atoms: _115  and  _117
REMARK   47  A    between atoms: _117  and  _118
REMARK   48  A    between atoms: _117  and  _120
REMARK   49  A    between atoms: _120  and  _121
REMARK   50  A    between atoms: _124  and  _126
REMARK   51  A    between atoms: _126  and  _127
REMARK   52  A    between atoms: _130  and  _132
REMARK   53  A    between atoms: _132  and  _133
REMARK   54  A    between atoms: _132  and  _135
REMARK   55  A    between atoms: _135  and  _136
REMARK   56  A    between atoms: _136  and  _137
REMARK   57  A    between atoms: _137  and  _138
REMARK   58  A    between atoms: _147  and  _149
REMARK   59  A    between atoms: _149  and  _150
REMARK   60  A    between atoms: _149  and  _152
REMARK   61  A    between atoms: _152  and  _153
REMARK   62  A    between atoms: _160  and  _161
REMARK   63  A    between atoms: _166  and  _168
REMARK   64  A    between atoms: _168  and  _169
REMARK   65  A    between atoms: _168  and  _171
REMARK   66  A    between atoms: _171  and  _172
REMARK   67  A    between atoms: _175  and  _177
REMARK   68  A    between atoms: _177  and  _178
REMARK   69  A    between atoms: _177  and  _180
REMARK   70  A    between atoms: _180  and  _181
REMARK   71  A    between atoms: _186  and  _187
REMARK   72  A    between atoms: _189  and  _191
REMARK   73  A    between atoms: _191  and  _192
REMARK   74  A    between atoms: _191  and  _194
REMARK   75  A    between atoms: _194  and  _195
REMARK   76  A    between atoms: _195  and  _196
REMARK   77  A    between atoms: _196  and  _197
REMARK   78  A    between atoms: _206  and  _208
REMARK   79  A    between atoms: _208  and  _209
REMARK   80  A    between atoms: _208  and  _211
REMARK   81  A    between atoms: _214  and  _216
REMARK   82  A    between atoms: _216  and  _217
REMARK   83  A    between atoms: _216  and  _219
REMARK   84  A    between atoms: _219  and  _220
REMARK   85  A    between atoms: _223  and  _225
REMARK   86  A    between atoms: _225  and  _226
REMARK   87  A    between atoms: _225  and  _228
REMARK   88  A    between atoms: _228  and  _229
REMARK   89  A    between atoms: _231  and  _233
REMARK   90  A    between atoms: _233  and  _234
REMARK   91  A    between atoms: _233  and  _236
REMARK   92  A    between atoms: _239  and  _241
REMARK   93  A    between atoms: _241  and  _242
REMARK   94  A    between atoms: _241  and  _244
REMARK   95  A    between atoms: _244  and  _245
REMARK   96  A    between atoms: _250  and  _251
REMARK   97  A    between atoms: _253  and  _255
REMARK   98  A    between atoms: _255  and  _256
REMARK   99  A    between atoms: _255  and  _258
REMARK  100  A    between atoms: _261  and  _263
REMARK  101  A    between atoms: _263  and  _264
REMARK  102  A    between atoms: _263  and  _266
REMARK  103  A    between atoms: _269  and  _271
REMARK  104  A    between atoms: _271  and  _272
REMARK  105  A    between atoms: _271  and  _274
REMARK  106  A    between atoms: _274  and  _275
REMARK  107  A    between atoms: _275  and  _276
REMARK  108  A    between atoms: _279  and  _280
REMARK                            x       y       z     vdW  Elec       q    Type
REMARK                         _______ _______ _______ _____ _____    ______ ____
ROOT
ATOM      1  O   HOH     1      10.102 -15.021  -7.150  0.00  0.00    +0.000 OA
ENDROOT
TORSDOF 0
REMARK  Name = ../refined-set-2016/4ovg/4ovg_pocket.pdb
REMARK  108 active torsions:
REMARK  status: ('A' for Active; 'I' for Inactive)
REMARK    1  A    between atoms: _1  and  _3
REMARK    2  A    between atoms: _3  and  _4
REMARK    3  A    between atoms: _3  and  _6
REMARK    4  A    between atoms: _6  and  _7
REMARK    5  A    between atoms: _9  and  _11
REMARK    6  A    between atoms: _11  and  _12
REMARK    7  A    between atoms: _11  and  _14
REMARK    8  A    between atoms: _14  and  _15
REMARK    9  A    between atoms: _18  and  _20
REMARK   10  A    between atoms: _20  and  _21
REMARK   11  A    between atoms: _20  and  _23
REMARK   12  A    between atoms: _23  and  _24
REMARK   13  A    between atoms: _24  and  _25
REMARK   14  A    between atoms: _25  and  _26
REMARK   15  A    between atoms: _35  and  _37
REMARK   16  A    between atoms: _37  and  _38
REMARK   17  A    between atoms: _37  and  _40
REMARK   18  A    between atoms: _40  and  _41
REMARK   19  A    between atoms: _46  and  _47
REMARK   20  A    between atoms: _49  and  _51
REMARK   21  A    between atoms: _51  and  _52
REMARK   22  A    between atoms: _51  and  _54
REMARK   23  A    between atoms: _54  and  _55
REMARK   24  A    between atoms: _58  and  _60
REMARK   25  A    between atoms: _60  and  _61
REMARK   26  A    between atoms: _64  and  _66
REMARK   27  A    between atoms: _66  and  _67
REMARK   28  A    between atoms: _66  and  _69
REMARK   29  A    between atoms: _69  and  _70
REMARK   30  A    between atoms: _73  and  _75
REMARK   31  A    between atoms: _75  and  _76
REMARK   32  A    between atoms: _75  and  _78
REMARK   33  A    between atoms: _78  and  _79
REMARK   34  A    between atoms: _82  and  _84
REMARK   35  A    between atoms: _84  and  _85
REMARK   36  A    between atoms: _87  and  _89
REMARK   37  A    between atoms: _89  and  _90
REMARK   38  A    between atoms: _89  and  _92
REMARK   39  A    between atoms: _92  and  _93
REMARK   40  A    between atoms: _98  and  _100
REMARK   41  A    between atoms: _100  and  _101
REMARK   42  A    between atoms: _100  and  _103
REMARK   43  A    between atoms: _103  and  _104
REMARK   44  A    between atoms: _104  and  _105
REMARK   45  A    between atoms: _105  and  _106
REMARK   46  A    between atoms: _115  and  _117
REMARK   47  A    between atoms: _117  and  _118
REMARK   48  A    between atoms: _117  and  _120
REMARK   49  A    between atoms: _120  and  _121
REMARK   50  A    between atoms: _124  and  _126
REMARK   51  A    between atoms: _126  and  _127
REMARK   52  A    between atoms: _130  and  _132
REMARK   53  A    between atoms: _132  and  _133
REMARK   54  A    between atoms: _132  and  _135
REMARK   55  A    between atoms: _135  and  _136
REMARK   56  A    between atoms: _136  and  _137
REMARK   57  A    between atoms: _137  and  _138
REMARK   58  A    between atoms: _147  and  _149
REMARK   59  A    between atoms: _149  and  _150
REMARK   60  A    between atoms: _149  and  _152
REMARK   61  A    between atoms: _152  and  _153
REMARK   62  A    between atoms: _160  and  _161
REMARK   63  A    between atoms: _166  and  _168
REMARK   64  A    between atoms: _168  and  _169
REMARK   65  A    between atoms: _168  and  _171
REMARK   66  A    between atoms: _171  and  _172
REMARK   67  A    between atoms: _175  and  _177
REMARK   68  A    between atoms: _177  and  _178
REMARK   69  A    between atoms: _177  and  _180
REMARK   70  A    between atoms: _180  and  _181
REMARK   71  A    between atoms: _186  and  _187
REMARK   72  A    between atoms: _189  and  _191
REMARK   73  A    between atoms: _191  and  _192
REMARK   74  A    between atoms: _191  and  _194
REMARK   75  A    between atoms: _194  and  _195
REMARK   76  A    between atoms: _195  and  _196
REMARK   77  A    between atoms: _196  and  _197
REMARK   78  A    between atoms: _206  and  _208
REMARK   79  A    between atoms: _208  and  _209
REMARK   80  A    between atoms: _208  and  _211
REMARK   81  A    between atoms: _214  and  _216
REMARK   82  A    between atoms: _216  and  _217
REMARK   83  A    between atoms: _216  and  _219
REMARK   84  A    between atoms: _219  and  _220
REMARK   85  A    between atoms: _223  and  _225
REMARK   86  A    between atoms: _225  and  _226
REMARK   87  A    between atoms: _225  and  _228
REMARK   88  A    between atoms: _228  and  _229
REMARK   89  A    between atoms: _231  and  _233
REMARK   90  A    between atoms: _233  and  _234
REMARK   91  A    between atoms: _233  and  _236
REMARK   92  A    between atoms: _239  and  _241
REMARK   93  A    between atoms: _241  and  _242
REMARK   94  A    between atoms: _241  and  _244
REMARK   95  A    between atoms: _244  and  _245
REMARK   96  A    between atoms: _250  and  _251
REMARK   97  A    between atoms: _253  and  _255
REMARK   98  A    between atoms: _255  and  _256
REMARK   99  A    between atoms: _255  and  _258
REMARK  100  A    between atoms: _261  and  _263
REMARK  101  A    between atoms: _263  and  _264
REMARK  102  A    between atoms: _263  and  _266
REMARK  103  A    between atoms: _269  and  _271
REMARK  104  A    between atoms: _271  and  _272
REMARK  105  A    between atoms: _271  and  _274
REMARK  106  A    between atoms: _274  and  _275
REMARK  107  A    between atoms: _275  and  _276
REMARK  108  A    between atoms: _279  and  _280
REMARK                            x       y       z     vdW  Elec       q    Type
REMARK                         _______ _______ _______ _____ _____    ______ ____
ROOT
ATOM      1  O   HOH     1       7.212  -9.394  -8.948  0.00  0.00    +0.000 OA
ENDROOT
TORSDOF 0
REMARK  Name = ../refined-set-2016/4ovg/4ovg_pocket.pdb
REMARK  108 active torsions:
REMARK  status: ('A' for Active; 'I' for Inactive)
REMARK    1  A    between atoms: _1  and  _3
REMARK    2  A    between atoms: _3  and  _4
REMARK    3  A    between atoms: _3  and  _6
REMARK    4  A    between atoms: _6  and  _7
REMARK    5  A    between atoms: _9  and  _11
REMARK    6  A    between atoms: _11  and  _12
REMARK    7  A    between atoms: _11  and  _14
REMARK    8  A    between atoms: _14  and  _15
REMARK    9  A    between atoms: _18  and  _20
REMARK   10  A    between atoms: _20  and  _21
REMARK   11  A    between atoms: _20  and  _23
REMARK   12  A    between atoms: _23  and  _24
REMARK   13  A    between atoms: _24  and  _25
REMARK   14  A    between atoms: _25  and  _26
REMARK   15  A    between atoms: _35  and  _37
REMARK   16  A    between atoms: _37  and  _38
REMARK   17  A    between atoms: _37  and  _40
REMARK   18  A    between atoms: _40  and  _41
REMARK   19  A    between atoms: _46  and  _47
REMARK   20  A    between atoms: _49  and  _51
REMARK   21  A    between atoms: _51  and  _52
REMARK   22  A    between atoms: _51  and  _54
REMARK   23  A    between atoms: _54  and  _55
REMARK   24  A    between atoms: _58  and  _60
REMARK   25  A    between atoms: _60  and  _61
REMARK   26  A    between atoms: _64  and  _66
REMARK   27  A    between atoms: _66  and  _67
REMARK   28  A    between atoms: _66  and  _69
REMARK   29  A    between atoms: _69  and  _70
REMARK   30  A    between atoms: _73  and  _75
REMARK   31  A    between atoms: _75  and  _76
REMARK   32  A    between atoms: _75  and  _78
REMARK   33  A    between atoms: _78  and  _79
REMARK   34  A    between atoms: _82  and  _84
REMARK   35  A    between atoms: _84  and  _85
REMARK   36  A    between atoms: _87  and  _89
REMARK   37  A    between atoms: _89  and  _90
REMARK   38  A    between atoms: _89  and  _92
REMARK   39  A    between atoms: _92  and  _93
REMARK   40  A    between atoms: _98  and  _100
REMARK   41  A    between atoms: _100  and  _101
REMARK   42  A    between atoms: _100  and  _103
REMARK   43  A    between atoms: _103  and  _104
REMARK   44  A    between atoms: _104  and  _105
REMARK   45  A    between atoms: _105  and  _106
REMARK   46  A    between atoms: _115  and  _117
REMARK   47  A    between atoms: _117  and  _118
REMARK   48  A    between atoms: _117  and  _120
REMARK   49  A    between atoms: _120  and  _121
REMARK   50  A    between atoms: _124  and  _126
REMARK   51  A    between atoms: _126  and  _127
REMARK   52  A    between atoms: _130  and  _132
REMARK   53  A    between atoms: _132  and  _133
REMARK   54  A    between atoms: _132  and  _135
REMARK   55  A    between atoms: _135  and  _136
REMARK   56  A    between atoms: _136  and  _137
REMARK   57  A    between atoms: _137  and  _138
REMARK   58  A    between atoms: _147  and  _149
REMARK   59  A    between atoms: _149  and  _150
REMARK   60  A    between atoms: _149  and  _152
REMARK   61  A    between atoms: _152  and  _153
REMARK   62  A    between atoms: _160  and  _161
REMARK   63  A    between atoms: _166  and  _168
REMARK   64  A    between atoms: _168  and  _169
REMARK   65  A    between atoms: _168  and  _171
REMARK   66  A    between atoms: _171  and  _172
REMARK   67  A    between atoms: _175  and  _177
REMARK   68  A    between atoms: _177  and  _178
REMARK   69  A    between atoms: _177  and  _180
REMARK   70  A    between atoms: _180  and  _181
REMARK   71  A    between atoms: _186  and  _187
REMARK   72  A    between atoms: _189  and  _191
REMARK   73  A    between atoms: _191  and  _192
REMARK   74  A    between atoms: _191  and  _194
REMARK   75  A    between atoms: _194  and  _195
REMARK   76  A    between atoms: _195  and  _196
REMARK   77  A    between atoms: _196  and  _197
REMARK   78  A    between atoms: _206  and  _208
REMARK   79  A    between atoms: _208  and  _209
REMARK   80  A    between atoms: _208  and  _211
REMARK   81  A    between atoms: _214  and  _216
REMARK   82  A    between atoms: _216  and  _217
REMARK   83  A    between atoms: _216  and  _219
REMARK   84  A    between atoms: _219  and  _220
REMARK   85  A    between atoms: _223  and  _225
REMARK   86  A    between atoms: _225  and  _226
REMARK   87  A    between atoms: _225  and  _228
REMARK   88  A    between atoms: _228  and  _229
REMARK   89  A    between atoms: _231  and  _233
REMARK   90  A    between atoms: _233  and  _234
REMARK   91  A    between atoms: _233  and  _236
REMARK   92  A    between atoms: _239  and  _241
REMARK   93  A    between atoms: _241  and  _242
REMARK   94  A    between atoms: _241  and  _244
REMARK   95  A    between atoms: _244  and  _245
REMARK   96  A    between atoms: _250  and  _251
REMARK   97  A    between atoms: _253  and  _255
REMARK   98  A    between atoms: _255  and  _256
REMARK   99  A    between atoms: _255  and  _258
REMARK  100  A    between atoms: _261  and  _263
REMARK  101  A    between atoms: _263  and  _264
REMARK  102  A    between atoms: _263  and  _266
REMARK  103  A    between atoms: _269  and  _271
REMARK  104  A    between atoms: _271  and  _272
REMARK  105  A    between atoms: _271  and  _274
REMARK  106  A    between atoms: _274  and  _275
REMARK  107  A    between atoms: _275  and  _276
REMARK  108  A    between atoms: _279  and  _280
REMARK                            x       y       z     vdW  Elec       q    Type
REMARK                         _______ _______ _______ _____ _____    ______ ____
ROOT
ATOM      1  O   HOH     1      12.741 -16.035  -6.759  0.00  0.00    +0.000 OA
ENDROOT
TORSDOF 0
REMARK  Name = ../refined-set-2016/4ovg/4ovg_pocket.pdb
REMARK  108 active torsions:
REMARK  status: ('A' for Active; 'I' for Inactive)
REMARK    1  A    between atoms: _1  and  _3
REMARK    2  A    between atoms: _3  and  _4
REMARK    3  A    between atoms: _3  and  _6
REMARK    4  A    between atoms: _6  and  _7
REMARK    5  A    between atoms: _9  and  _11
REMARK    6  A    between atoms: _11  and  _12
REMARK    7  A    between atoms: _11  and  _14
REMARK    8  A    between atoms: _14  and  _15
REMARK    9  A    between atoms: _18  and  _20
REMARK   10  A    between atoms: _20  and  _21
REMARK   11  A    between atoms: _20  and  _23
REMARK   12  A    between atoms: _23  and  _24
REMARK   13  A    between atoms: _24  and  _25
REMARK   14  A    between atoms: _25  and  _26
REMARK   15  A    between atoms: _35  and  _37
REMARK   16  A    between atoms: _37  and  _38
REMARK   17  A    between atoms: _37  and  _40
REMARK   18  A    between atoms: _40  and  _41
REMARK   19  A    between atoms: _46  and  _47
REMARK   20  A    between atoms: _49  and  _51
REMARK   21  A    between atoms: _51  and  _52
REMARK   22  A    between atoms: _51  and  _54
REMARK   23  A    between atoms: _54  and  _55
REMARK   24  A    between atoms: _58  and  _60
REMARK   25  A    between atoms: _60  and  _61
REMARK   26  A    between atoms: _64  and  _66
REMARK   27  A    between atoms: _66  and  _67
REMARK   28  A    between atoms: _66  and  _69
REMARK   29  A    between atoms: _69  and  _70
REMARK   30  A    between atoms: _73  and  _75
REMARK   31  A    between atoms: _75  and  _76
REMARK   32  A    between atoms: _75  and  _78
REMARK   33  A    between atoms: _78  and  _79
REMARK   34  A    between atoms: _82  and  _84
REMARK   35  A    between atoms: _84  and  _85
REMARK   36  A    between atoms: _87  and  _89
REMARK   37  A    between atoms: _89  and  _90
REMARK   38  A    between atoms: _89  and  _92
REMARK   39  A    between atoms: _92  and  _93
REMARK   40  A    between atoms: _98  and  _100
REMARK   41  A    between atoms: _100  and  _101
REMARK   42  A    between atoms: _100  and  _103
REMARK   43  A    between atoms: _103  and  _104
REMARK   44  A    between atoms: _104  and  _105
REMARK   45  A    between atoms: _105  and  _106
REMARK   46  A    between atoms: _115  and  _117
REMARK   47  A    between atoms: _117  and  _118
REMARK   48  A    between atoms: _117  and  _120
REMARK   49  A    between atoms: _120  and  _121
REMARK   50  A    between atoms: _124  and  _126
REMARK   51  A    between atoms: _126  and  _127
REMARK   52  A    between atoms: _130  and  _132
REMARK   53  A    between atoms: _132  and  _133
REMARK   54  A    between atoms: _132  and  _135
REMARK   55  A    between atoms: _135  and  _136
REMARK   56  A    between atoms: _136  and  _137
REMARK   57  A    between atoms: _137  and  _138
REMARK   58  A    between atoms: _147  and  _149
REMARK   59  A    between atoms: _149  and  _150
REMARK   60  A    between atoms: _149  and  _152
REMARK   61  A    between atoms: _152  and  _153
REMARK   62  A    between atoms: _160  and  _161
REMARK   63  A    between atoms: _166  and  _168
REMARK   64  A    between atoms: _168  and  _169
REMARK   65  A    between atoms: _168  and  _171
REMARK   66  A    between atoms: _171  and  _172
REMARK   67  A    between atoms: _175  and  _177
REMARK   68  A    between atoms: _177  and  _178
REMARK   69  A    between atoms: _177  and  _180
REMARK   70  A    between atoms: _180  and  _181
REMARK   71  A    between atoms: _186  and  _187
REMARK   72  A    between atoms: _189  and  _191
REMARK   73  A    between atoms: _191  and  _192
REMARK   74  A    between atoms: _191  and  _194
REMARK   75  A    between atoms: _194  and  _195
REMARK   76  A    between atoms: _195  and  _196
REMARK   77  A    between atoms: _196  and  _197
REMARK   78  A    between atoms: _206  and  _208
REMARK   79  A    between atoms: _208  and  _209
REMARK   80  A    between atoms: _208  and  _211
REMARK   81  A    between atoms: _214  and  _216
REMARK   82  A    between atoms: _216  and  _217
REMARK   83  A    between atoms: _216  and  _219
REMARK   84  A    between atoms: _219  and  _220
REMARK   85  A    between atoms: _223  and  _225
REMARK   86  A    between atoms: _225  and  _226
REMARK   87  A    between atoms: _225  and  _228
REMARK   88  A    between atoms: _228  and  _229
REMARK   89  A    between atoms: _231  and  _233
REMARK   90  A    between atoms: _233  and  _234
REMARK   91  A    between atoms: _233  and  _236
REMARK   92  A    between atoms: _239  and  _241
REMARK   93  A    between atoms: _241  and  _242
REMARK   94  A    between atoms: _241  and  _244
REMARK   95  A    between atoms: _244  and  _245
REMARK   96  A    between atoms: _250  and  _251
REMARK   97  A    between atoms: _253  and  _255
REMARK   98  A    between atoms: _255  and  _256
REMARK   99  A    between atoms: _255  and  _258
REMARK  100  A    between atoms: _261  and  _263
REMARK  101  A    between atoms: _263  and  _264
REMARK  102  A    between atoms: _263  and  _266
REMARK  103  A    between atoms: _269  and  _271
REMARK  104  A    between atoms: _271  and  _272
REMARK  105  A    between atoms: _271  and  _274
REMARK  106  A    between atoms: _274  and  _275
REMARK  107  A    between atoms: _275  and  _276
REMARK  108  A    between atoms: _279  and  _280
REMARK                            x       y       z     vdW  Elec       q    Type
REMARK                         _______ _______ _______ _____ _____    ______ ____
ROOT
ATOM      1  O   HOH     1       8.348   1.221 -16.913  0.00  0.00    +0.000 OA
ENDROOT
TORSDOF 0
