REMARK  Name = ../refined-set-2016/4o2b/4o2b_pocket.pdb
REMARK  224 active torsions:
REMARK  status: ('A' for Active; 'I' for Inactive)
REMARK    1  A    between atoms: _1  and  _3
REMARK    2  A    between atoms: _3  and  _4
REMARK    3  A    between atoms: _3  and  _6
REMARK    4  A    between atoms: _6  and  _7
REMARK    5  A    between atoms: _7  and  _8
REMARK    6  A    between atoms: _13  and  _15
REMARK    7  A    between atoms: _15  and  _16
REMARK    8  A    between atoms: _19  and  _21
REMARK    9  A    between atoms: _21  and  _22
REMARK   10  A    between atoms: _21  and  _24
REMARK   11  A    between atoms: _24  and  _25
REMARK   12  A    between atoms: _31  and  _32
REMARK   13  A    between atoms: _37  and  _39
REMARK   14  A    between atoms: _39  and  _40
REMARK   15  A    between atoms: _39  and  _42
REMARK   16  A    between atoms: _45  and  _47
REMARK   17  A    between atoms: _47  and  _48
REMARK   18  A    between atoms: _47  and  _50
REMARK   19  A    between atoms: _50  and  _51
REMARK   20  A    between atoms: _53  and  _55
REMARK   21  A    between atoms: _55  and  _56
REMARK   22  A    between atoms: _55  and  _58
REMARK   23  A    between atoms: _58  and  _59
REMARK   24  A    between atoms: _62  and  _64
REMARK   25  A    between atoms: _64  and  _65
REMARK   26  A    between atoms: _68  and  _70
REMARK   27  A    between atoms: _70  and  _71
REMARK   28  A    between atoms: _70  and  _73
REMARK   29  A    between atoms: _76  and  _78
REMARK   30  A    between atoms: _78  and  _79
REMARK   31  A    between atoms: _78  and  _81
REMARK   32  A    between atoms: _84  and  _86
REMARK   33  A    between atoms: _86  and  _87
REMARK   34  A    between atoms: _86  and  _89
REMARK   35  A    between atoms: _89  and  _90
REMARK   36  A    between atoms: _90  and  _91
REMARK   37  A    between atoms: _94  and  _96
REMARK   38  A    between atoms: _96  and  _97
REMARK   39  A    between atoms: _96  and  _99
REMARK   40  A    between atoms: _99  and  _100
REMARK   41  A    between atoms: _105  and  _106
REMARK   42  A    between atoms: _108  and  _110
REMARK   43  A    between atoms: _110  and  _111
REMARK   44  A    between atoms: _110  and  _113
REMARK   45  A    between atoms: _113  and  _114
REMARK   46  A    between atoms: _120  and  _122
REMARK   47  A    between atoms: _122  and  _123
REMARK   48  A    between atoms: _122  and  _125
REMARK   49  A    between atoms: _125  and  _126
REMARK   50  A    between atoms: _126  and  _127
REMARK   51  A    between atoms: _127  and  _128
REMARK   52  A    between atoms: _137  and  _139
REMARK   53  A    between atoms: _139  and  _140
REMARK   54  A    between atoms: _139  and  _142
REMARK   55  A    between atoms: _142  and  _143
REMARK   56  A    between atoms: _143  and  _144
REMARK   57  A    between atoms: _149  and  _151
REMARK   58  A    between atoms: _151  and  _152
REMARK   59  A    between atoms: _151  and  _154
REMARK   60  A    between atoms: _154  and  _155
REMARK   61  A    between atoms: _155  and  _156
REMARK   62  A    between atoms: _159  and  _161
REMARK   63  A    between atoms: _161  and  _162
REMARK   64  A    between atoms: _161  and  _164
REMARK   65  A    between atoms: _164  and  _165
REMARK   66  A    between atoms: _170  and  _171
REMARK   67  A    between atoms: _173  and  _175
REMARK   68  A    between atoms: _175  and  _176
REMARK   69  A    between atoms: _178  and  _180
REMARK   70  A    between atoms: _180  and  _181
REMARK   71  A    between atoms: _180  and  _183
REMARK   72  A    between atoms: _186  and  _188
REMARK   73  A    between atoms: _188  and  _189
REMARK   74  A    between atoms: _188  and  _191
REMARK   75  A    between atoms: _191  and  _192
REMARK   76  A    between atoms: _195  and  _197
REMARK   77  A    between atoms: _197  and  _198
REMARK   78  A    between atoms: _197  and  _200
REMARK   79  A    between atoms: _200  and  _201
REMARK   80  A    between atoms: _204  and  _206
REMARK   81  A    between atoms: _206  and  _207
REMARK   82  A    between atoms: _206  and  _209
REMARK   83  A    between atoms: _211  and  _213
REMARK   84  A    between atoms: _213  and  _214
REMARK   85  A    between atoms: _213  and  _216
REMARK   86  A    between atoms: _216  and  _217
REMARK   87  A    between atoms: _220  and  _222
REMARK   88  A    between atoms: _222  and  _223
REMARK   89  A    between atoms: _222  and  _225
REMARK   90  A    between atoms: _225  and  _226
REMARK   91  A    between atoms: _226  and  _227
REMARK   92  A    between atoms: _227  and  _228
REMARK   93  A    between atoms: _237  and  _239
REMARK   94  A    between atoms: _239  and  _240
REMARK   95  A    between atoms: _239  and  _242
REMARK   96  A    between atoms: _242  and  _243
REMARK   97  A    between atoms: _249  and  _251
REMARK   98  A    between atoms: _251  and  _252
REMARK   99  A    between atoms: _251  and  _254
REMARK  100  A    between atoms: _254  and  _255
REMARK  101  A    between atoms: _255  and  _256
REMARK  102  A    between atoms: _261  and  _263
REMARK  103  A    between atoms: _263  and  _264
REMARK  104  A    between atoms: _263  and  _266
REMARK  105  A    between atoms: _266  and  _267
REMARK  106  A    between atoms: _270  and  _272
REMARK  107  A    between atoms: _272  and  _273
REMARK  108  A    between atoms: _272  and  _275
REMARK  109  A    between atoms: _275  and  _276
REMARK  110  A    between atoms: _281  and  _283
REMARK  111  A    between atoms: _283  and  _284
REMARK  112  A    between atoms: _287  and  _289
REMARK  113  A    between atoms: _289  and  _290
REMARK  114  A    between atoms: _289  and  _292
REMARK  115  A    between atoms: _292  and  _293
REMARK  116  A    between atoms: _296  and  _298
REMARK  117  A    between atoms: _298  and  _299
REMARK  118  A    between atoms: _298  and  _301
REMARK  119  A    between atoms: _301  and  _302
REMARK  120  A    between atoms: _305  and  _307
REMARK  121  A    between atoms: _307  and  _308
REMARK  122  A    between atoms: _307  and  _310
REMARK  123  A    between atoms: _310  and  _311
REMARK  124  A    between atoms: _311  and  _312
REMARK  125  A    between atoms: _312  and  _313
REMARK  126  A    between atoms: _322  and  _324
REMARK  127  A    between atoms: _324  and  _325
REMARK  128  A    between atoms: _324  and  _327
REMARK  129  A    between atoms: _327  and  _328
REMARK  130  A    between atoms: _328  and  _329
REMARK  131  A    between atoms: _329  and  _330
REMARK  132  A    between atoms: _330  and  _331
REMARK  133  A    between atoms: _335  and  _337
REMARK  134  A    between atoms: _337  and  _338
REMARK  135  A    between atoms: _337  and  _340
REMARK  136  A    between atoms: _340  and  _341
REMARK  137  A    between atoms: _344  and  _346
REMARK  138  A    between atoms: _346  and  _347
REMARK  139  A    between atoms: _350  and  _352
REMARK  140  A    between atoms: _352  and  _353
REMARK  141  A    between atoms: _352  and  _355
REMARK  142  A    between atoms: _358  and  _360
REMARK  143  A    between atoms: _360  and  _361
REMARK  144  A    between atoms: _360  and  _363
REMARK  145  A    between atoms: _363  and  _364
REMARK  146  A    between atoms: _369  and  _371
REMARK  147  A    between atoms: _371  and  _372
REMARK  148  A    between atoms: _371  and  _374
REMARK  149  A    between atoms: _374  and  _375
REMARK  150  A    between atoms: _375  and  _376
REMARK  151  A    between atoms: _378  and  _380
REMARK  152  A    between atoms: _380  and  _381
REMARK  153  A    between atoms: _380  and  _383
REMARK  154  A    between atoms: _386  and  _388
REMARK  155  A    between atoms: _388  and  _389
REMARK  156  A    between atoms: _388  and  _391
REMARK  157  A    between atoms: _391  and  _392
REMARK  158  A    between atoms: _395  and  _397
REMARK  159  A    between atoms: _397  and  _398
REMARK  160  A    between atoms: _397  and  _400
REMARK  161  A    between atoms: _400  and  _401
REMARK  162  A    between atoms: _404  and  _406
REMARK  163  A    between atoms: _406  and  _407
REMARK  164  A    between atoms: _406  and  _409
REMARK  165  A    between atoms: _412  and  _414
REMARK  166  A    between atoms: _414  and  _415
REMARK  167  A    between atoms: _418  and  _420
REMARK  168  A    between atoms: _420  and  _421
REMARK  169  A    between atoms: _424  and  _426
REMARK  170  A    between atoms: _426  and  _427
REMARK  171  A    between atoms: _426  and  _429
REMARK  172  A    between atoms: _429  and  _430
REMARK  173  A    between atoms: _433  and  _435
REMARK  174  A    between atoms: _435  and  _436
REMARK  175  A    between atoms: _435  and  _438
REMARK  176  A    between atoms: _438  and  _439
REMARK  177  A    between atoms: _445  and  _447
REMARK  178  A    between atoms: _447  and  _448
REMARK  179  A    between atoms: _447  and  _450
REMARK  180  A    between atoms: _450  and  _451
REMARK  181  A    between atoms: _455  and  _456
REMARK  182  A    between atoms: _461  and  _463
REMARK  183  A    between atoms: _463  and  _464
REMARK  184  A    between atoms: _463  and  _466
REMARK  185  A    between atoms: _466  and  _467
REMARK  186  A    between atoms: _472  and  _474
REMARK  187  A    between atoms: _474  and  _475
REMARK  188  A    between atoms: _474  and  _477
REMARK  189  A    between atoms: _477  and  _478
REMARK  190  A    between atoms: _483  and  _485
REMARK  191  A    between atoms: _485  and  _486
REMARK  192  A    between atoms: _485  and  _488
REMARK  193  A    between atoms: _491  and  _493
REMARK  194  A    between atoms: _493  and  _494
REMARK  195  A    between atoms: _493  and  _496
REMARK  196  A    between atoms: _496  and  _497
REMARK  197  A    between atoms: _497  and  _498
REMARK  198  A    between atoms: _498  and  _499
REMARK  199  A    between atoms: _499  and  _500
REMARK  200  A    between atoms: _504  and  _506
REMARK  201  A    between atoms: _506  and  _507
REMARK  202  A    between atoms: _506  and  _509
REMARK  203  A    between atoms: _509  and  _510
REMARK  204  A    between atoms: _513  and  _515
REMARK  205  A    between atoms: _515  and  _516
REMARK  206  A    between atoms: _519  and  _521
REMARK  207  A    between atoms: _521  and  _522
REMARK  208  A    between atoms: _521  and  _524
REMARK  209  A    between atoms: _527  and  _529
REMARK  210  A    between atoms: _529  and  _530
REMARK  211  A    between atoms: _529  and  _532
REMARK  212  A    between atoms: _532  and  _533
REMARK  213  A    between atoms: _536  and  _538
REMARK  214  A    between atoms: _538  and  _539
REMARK  215  A    between atoms: _538  and  _541
REMARK  216  A    between atoms: _541  and  _542
REMARK  217  A    between atoms: _548  and  _550
REMARK  218  A    between atoms: _550  and  _551
REMARK  219  A    between atoms: _550  and  _553
REMARK  220  A    between atoms: _553  and  _554
REMARK  221  A    between atoms: _557  and  _559
REMARK  222  A    between atoms: _559  and  _560
REMARK  223  A    between atoms: _559  and  _562
REMARK  224  A    between atoms: _562  and  _563
REMARK                            x       y       z     vdW  Elec       q    Type
REMARK                         _______ _______ _______ _____ _____    ______ ____
ROOT
ATOM      1  CB  GLN A   1      23.236  78.406  47.112  0.00  0.00    +0.035 C 
ENDROOT
BRANCH   1   2
ATOM      2  CA  GLN A   1      24.204  79.406  47.744  0.00  0.00    +0.134 C 
BRANCH   2   3
ATOM      3  N   GLN A   1      25.513  78.793  47.957  0.00  0.00    -0.239 NA
ATOM      4  H   GLN A   1      25.653  77.797  47.692  0.00  0.00    +0.142 HD
ENDBRANCH   2   3
BRANCH   2   5
ATOM      5  C   GLN A   1      23.591  79.982  49.020  0.00  0.00    +0.224 C 
ATOM      6  O   GLN A   1      23.141  81.129  49.035  0.00  0.00    -0.287 OA
ENDBRANCH   2   5
ENDBRANCH   1   2
BRANCH   1   7
ATOM      7  CG  GLN A   1      21.803  78.912  47.029  0.00  0.00    +0.087 C 
BRANCH   7   8
ATOM      8  CD  GLN A   1      20.882  77.948  46.312  0.00  0.00    +0.219 C 
ATOM      9  NE2 GLN A   1      19.716  77.700  46.895  0.00  0.00    -0.329 N 
ATOM     10 HE21 GLN A   1      19.476  78.162  47.795  0.00  0.00    +0.145 HD
ATOM     11 HE22 GLN A   1      19.042  77.043  46.452  0.00  0.00    +0.145 HD
ATOM     12  OE1 GLN A   1      21.216  77.429  45.249  0.00  0.00    -0.275 OA
ENDBRANCH   7   8
ENDBRANCH   1   7
TORSDOF 5
REMARK  Name = ../refined-set-2016/4o2b/4o2b_pocket.pdb
REMARK  224 active torsions:
REMARK  status: ('A' for Active; 'I' for Inactive)
REMARK    1  A    between atoms: _1  and  _3
REMARK    2  A    between atoms: _3  and  _4
REMARK    3  A    between atoms: _3  and  _6
REMARK    4  A    between atoms: _6  and  _7
REMARK    5  A    between atoms: _7  and  _8
REMARK    6  A    between atoms: _13  and  _15
REMARK    7  A    between atoms: _15  and  _16
REMARK    8  A    between atoms: _19  and  _21
REMARK    9  A    between atoms: _21  and  _22
REMARK   10  A    between atoms: _21  and  _24
REMARK   11  A    between atoms: _24  and  _25
REMARK   12  A    between atoms: _31  and  _32
REMARK   13  A    between atoms: _37  and  _39
REMARK   14  A    between atoms: _39  and  _40
REMARK   15  A    between atoms: _39  and  _42
REMARK   16  A    between atoms: _45  and  _47
REMARK   17  A    between atoms: _47  and  _48
REMARK   18  A    between atoms: _47  and  _50
REMARK   19  A    between atoms: _50  and  _51
REMARK   20  A    between atoms: _53  and  _55
REMARK   21  A    between atoms: _55  and  _56
REMARK   22  A    between atoms: _55  and  _58
REMARK   23  A    between atoms: _58  and  _59
REMARK   24  A    between atoms: _62  and  _64
REMARK   25  A    between atoms: _64  and  _65
REMARK   26  A    between atoms: _68  and  _70
REMARK   27  A    between atoms: _70  and  _71
REMARK   28  A    between atoms: _70  and  _73
REMARK   29  A    between atoms: _76  and  _78
REMARK   30  A    between atoms: _78  and  _79
REMARK   31  A    between atoms: _78  and  _81
REMARK   32  A    between atoms: _84  and  _86
REMARK   33  A    between atoms: _86  and  _87
REMARK   34  A    between atoms: _86  and  _89
REMARK   35  A    between atoms: _89  and  _90
REMARK   36  A    between atoms: _90  and  _91
REMARK   37  A    between atoms: _94  and  _96
REMARK   38  A    between atoms: _96  and  _97
REMARK   39  A    between atoms: _96  and  _99
REMARK   40  A    between atoms: _99  and  _100
REMARK   41  A    between atoms: _105  and  _106
REMARK   42  A    between atoms: _108  and  _110
REMARK   43  A    between atoms: _110  and  _111
REMARK   44  A    between atoms: _110  and  _113
REMARK   45  A    between atoms: _113  and  _114
REMARK   46  A    between atoms: _120  and  _122
REMARK   47  A    between atoms: _122  and  _123
REMARK   48  A    between atoms: _122  and  _125
REMARK   49  A    between atoms: _125  and  _126
REMARK   50  A    between atoms: _126  and  _127
REMARK   51  A    between atoms: _127  and  _128
REMARK   52  A    between atoms: _137  and  _139
REMARK   53  A    between atoms: _139  and  _140
REMARK   54  A    between atoms: _139  and  _142
REMARK   55  A    between atoms: _142  and  _143
REMARK   56  A    between atoms: _143  and  _144
REMARK   57  A    between atoms: _149  and  _151
REMARK   58  A    between atoms: _151  and  _152
REMARK   59  A    between atoms: _151  and  _154
REMARK   60  A    between atoms: _154  and  _155
REMARK   61  A    between atoms: _155  and  _156
REMARK   62  A    between atoms: _159  and  _161
REMARK   63  A    between atoms: _161  and  _162
REMARK   64  A    between atoms: _161  and  _164
REMARK   65  A    between atoms: _164  and  _165
REMARK   66  A    between atoms: _170  and  _171
REMARK   67  A    between atoms: _173  and  _175
REMARK   68  A    between atoms: _175  and  _176
REMARK   69  A    between atoms: _178  and  _180
REMARK   70  A    between atoms: _180  and  _181
REMARK   71  A    between atoms: _180  and  _183
REMARK   72  A    between atoms: _186  and  _188
REMARK   73  A    between atoms: _188  and  _189
REMARK   74  A    between atoms: _188  and  _191
REMARK   75  A    between atoms: _191  and  _192
REMARK   76  A    between atoms: _195  and  _197
REMARK   77  A    between atoms: _197  and  _198
REMARK   78  A    between atoms: _197  and  _200
REMARK   79  A    between atoms: _200  and  _201
REMARK   80  A    between atoms: _204  and  _206
REMARK   81  A    between atoms: _206  and  _207
REMARK   82  A    between atoms: _206  and  _209
REMARK   83  A    between atoms: _211  and  _213
REMARK   84  A    between atoms: _213  and  _214
REMARK   85  A    between atoms: _213  and  _216
REMARK   86  A    between atoms: _216  and  _217
REMARK   87  A    between atoms: _220  and  _222
REMARK   88  A    between atoms: _222  and  _223
REMARK   89  A    between atoms: _222  and  _225
REMARK   90  A    between atoms: _225  and  _226
REMARK   91  A    between atoms: _226  and  _227
REMARK   92  A    between atoms: _227  and  _228
REMARK   93  A    between atoms: _237  and  _239
REMARK   94  A    between atoms: _239  and  _240
REMARK   95  A    between atoms: _239  and  _242
REMARK   96  A    between atoms: _242  and  _243
REMARK   97  A    between atoms: _249  and  _251
REMARK   98  A    between atoms: _251  and  _252
REMARK   99  A    between atoms: _251  and  _254
REMARK  100  A    between atoms: _254  and  _255
REMARK  101  A    between atoms: _255  and  _256
REMARK  102  A    between atoms: _261  and  _263
REMARK  103  A    between atoms: _263  and  _264
REMARK  104  A    between atoms: _263  and  _266
REMARK  105  A    between atoms: _266  and  _267
REMARK  106  A    between atoms: _270  and  _272
REMARK  107  A    between atoms: _272  and  _273
REMARK  108  A    between atoms: _272  and  _275
REMARK  109  A    between atoms: _275  and  _276
REMARK  110  A    between atoms: _281  and  _283
REMARK  111  A    between atoms: _283  and  _284
REMARK  112  A    between atoms: _287  and  _289
REMARK  113  A    between atoms: _289  and  _290
REMARK  114  A    between atoms: _289  and  _292
REMARK  115  A    between atoms: _292  and  _293
REMARK  116  A    between atoms: _296  and  _298
REMARK  117  A    between atoms: _298  and  _299
REMARK  118  A    between atoms: _298  and  _301
REMARK  119  A    between atoms: _301  and  _302
REMARK  120  A    between atoms: _305  and  _307
REMARK  121  A    between atoms: _307  and  _308
REMARK  122  A    between atoms: _307  and  _310
REMARK  123  A    between atoms: _310  and  _311
REMARK  124  A    between atoms: _311  and  _312
REMARK  125  A    between atoms: _312  and  _313
REMARK  126  A    between atoms: _322  and  _324
REMARK  127  A    between atoms: _324  and  _325
REMARK  128  A    between atoms: _324  and  _327
REMARK  129  A    between atoms: _327  and  _328
REMARK  130  A    between atoms: _328  and  _329
REMARK  131  A    between atoms: _329  and  _330
REMARK  132  A    between atoms: _330  and  _331
REMARK  133  A    between atoms: _335  and  _337
REMARK  134  A    between atoms: _337  and  _338
REMARK  135  A    between atoms: _337  and  _340
REMARK  136  A    between atoms: _340  and  _341
REMARK  137  A    between atoms: _344  and  _346
REMARK  138  A    between atoms: _346  and  _347
REMARK  139  A    between atoms: _350  and  _352
REMARK  140  A    between atoms: _352  and  _353
REMARK  141  A    between atoms: _352  and  _355
REMARK  142  A    between atoms: _358  and  _360
REMARK  143  A    between atoms: _360  and  _361
REMARK  144  A    between atoms: _360  and  _363
REMARK  145  A    between atoms: _363  and  _364
REMARK  146  A    between atoms: _369  and  _371
REMARK  147  A    between atoms: _371  and  _372
REMARK  148  A    between atoms: _371  and  _374
REMARK  149  A    between atoms: _374  and  _375
REMARK  150  A    between atoms: _375  and  _376
REMARK  151  A    between atoms: _378  and  _380
REMARK  152  A    between atoms: _380  and  _381
REMARK  153  A    between atoms: _380  and  _383
REMARK  154  A    between atoms: _386  and  _388
REMARK  155  A    between atoms: _388  and  _389
REMARK  156  A    between atoms: _388  and  _391
REMARK  157  A    between atoms: _391  and  _392
REMARK  158  A    between atoms: _395  and  _397
REMARK  159  A    between atoms: _397  and  _398
REMARK  160  A    between atoms: _397  and  _400
REMARK  161  A    between atoms: _400  and  _401
REMARK  162  A    between atoms: _404  and  _406
REMARK  163  A    between atoms: _406  and  _407
REMARK  164  A    between atoms: _406  and  _409
REMARK  165  A    between atoms: _412  and  _414
REMARK  166  A    between atoms: _414  and  _415
REMARK  167  A    between atoms: _418  and  _420
REMARK  168  A    between atoms: _420  and  _421
REMARK  169  A    between atoms: _424  and  _426
REMARK  170  A    between atoms: _426  and  _427
REMARK  171  A    between atoms: _426  and  _429
REMARK  172  A    between atoms: _429  and  _430
REMARK  173  A    between atoms: _433  and  _435
REMARK  174  A    between atoms: _435  and  _436
REMARK  175  A    between atoms: _435  and  _438
REMARK  176  A    between atoms: _438  and  _439
REMARK  177  A    between atoms: _445  and  _447
REMARK  178  A    between atoms: _447  and  _448
REMARK  179  A    between atoms: _447  and  _450
REMARK  180  A    between atoms: _450  and  _451
REMARK  181  A    between atoms: _455  and  _456
REMARK  182  A    between atoms: _461  and  _463
REMARK  183  A    between atoms: _463  and  _464
REMARK  184  A    between atoms: _463  and  _466
REMARK  185  A    between atoms: _466  and  _467
REMARK  186  A    between atoms: _472  and  _474
REMARK  187  A    between atoms: _474  and  _475
REMARK  188  A    between atoms: _474  and  _477
REMARK  189  A    between atoms: _477  and  _478
REMARK  190  A    between atoms: _483  and  _485
REMARK  191  A    between atoms: _485  and  _486
REMARK  192  A    between atoms: _485  and  _488
REMARK  193  A    between atoms: _491  and  _493
REMARK  194  A    between atoms: _493  and  _494
REMARK  195  A    between atoms: _493  and  _496
REMARK  196  A    between atoms: _496  and  _497
REMARK  197  A    between atoms: _497  and  _498
REMARK  198  A    between atoms: _498  and  _499
REMARK  199  A    between atoms: _499  and  _500
REMARK  200  A    between atoms: _504  and  _506
REMARK  201  A    between atoms: _506  and  _507
REMARK  202  A    between atoms: _506  and  _509
REMARK  203  A    between atoms: _509  and  _510
REMARK  204  A    between atoms: _513  and  _515
REMARK  205  A    between atoms: _515  and  _516
REMARK  206  A    between atoms: _519  and  _521
REMARK  207  A    between atoms: _521  and  _522
REMARK  208  A    between atoms: _521  and  _524
REMARK  209  A    between atoms: _527  and  _529
REMARK  210  A    between atoms: _529  and  _530
REMARK  211  A    between atoms: _529  and  _532
REMARK  212  A    between atoms: _532  and  _533
REMARK  213  A    between atoms: _536  and  _538
REMARK  214  A    between atoms: _538  and  _539
REMARK  215  A    between atoms: _538  and  _541
REMARK  216  A    between atoms: _541  and  _542
REMARK  217  A    between atoms: _548  and  _550
REMARK  218  A    between atoms: _550  and  _551
REMARK  219  A    between atoms: _550  and  _553
REMARK  220  A    between atoms: _553  and  _554
REMARK  221  A    between atoms: _557  and  _559
REMARK  222  A    between atoms: _559  and  _560
REMARK  223  A    between atoms: _559  and  _562
REMARK  224  A    between atoms: _562  and  _563
REMARK                            x       y       z     vdW  Elec       q    Type
REMARK                         _______ _______ _______ _____ _____    ______ ____
ROOT
ATOM      1  CA  ASN A   2      26.392  68.408  47.118  0.00  0.00    +0.146 C 
ENDROOT
BRANCH   1   3
ATOM      2  C   ALA A   1      26.968  68.124  44.751  0.00  0.00    +0.238 C 
ATOM      3  N   ASN A   2      26.721  68.922  45.787  0.00  0.00    -0.298 N 
ATOM      4  H   ASN A   2      26.763  69.951  45.646  0.00  0.00    +0.150 HD
ATOM      5  O   ALA A   1      26.903  66.894  44.813  0.00  0.00    -0.274 OA
BRANCH   2   6
ATOM      6  CA  ALA A   1      27.350  68.812  43.439  0.00  0.00    +0.145 C 
ATOM      7  CB  ALA A   1      27.795  67.780  42.416  0.00  0.00    +0.028 C 
BRANCH   6   8
ATOM      8  N   ALA A   1      28.365  69.856  43.583  0.00  0.00    -0.238 NA
ATOM      9  H   ALA A   1      28.169  70.799  43.192  0.00  0.00    +0.142 HD
ENDBRANCH   6   8
ENDBRANCH   2   6
ENDBRANCH   1   3
BRANCH   1  10
ATOM     10  C   ASN A   2      27.439  67.443  47.674  0.00  0.00    +0.227 C 
ATOM     11  O   ASN A   2      27.135  66.616  48.533  0.00  0.00    -0.286 OA
ENDBRANCH   1  10
BRANCH   1  12
ATOM     12  CB  ASN A   2      25.010  67.743  47.132  0.00  0.00    +0.112 C 
BRANCH  12  13
ATOM     13  CG  ASN A   2      23.891  68.710  46.802  0.00  0.00    +0.222 C 
ATOM     14  ND2 ASN A   2      24.142  69.998  47.006  0.00  0.00    -0.329 N 
ATOM     15 HD21 ASN A   2      25.066  70.295  47.381  0.00  0.00    +0.145 HD
ATOM     16 HD22 ASN A   2      23.415  70.710  46.791  0.00  0.00    +0.145 HD
ATOM     17  OD1 ASN A   2      22.816  68.304  46.361  0.00  0.00    -0.275 OA
ENDBRANCH  12  13
ENDBRANCH   1  12
TORSDOF 6
REMARK  Name = ../refined-set-2016/4o2b/4o2b_pocket.pdb
REMARK  224 active torsions:
REMARK  status: ('A' for Active; 'I' for Inactive)
REMARK    1  A    between atoms: _1  and  _3
REMARK    2  A    between atoms: _3  and  _4
REMARK    3  A    between atoms: _3  and  _6
REMARK    4  A    between atoms: _6  and  _7
REMARK    5  A    between atoms: _7  and  _8
REMARK    6  A    between atoms: _13  and  _15
REMARK    7  A    between atoms: _15  and  _16
REMARK    8  A    between atoms: _19  and  _21
REMARK    9  A    between atoms: _21  and  _22
REMARK   10  A    between atoms: _21  and  _24
REMARK   11  A    between atoms: _24  and  _25
REMARK   12  A    between atoms: _31  and  _32
REMARK   13  A    between atoms: _37  and  _39
REMARK   14  A    between atoms: _39  and  _40
REMARK   15  A    between atoms: _39  and  _42
REMARK   16  A    between atoms: _45  and  _47
REMARK   17  A    between atoms: _47  and  _48
REMARK   18  A    between atoms: _47  and  _50
REMARK   19  A    between atoms: _50  and  _51
REMARK   20  A    between atoms: _53  and  _55
REMARK   21  A    between atoms: _55  and  _56
REMARK   22  A    between atoms: _55  and  _58
REMARK   23  A    between atoms: _58  and  _59
REMARK   24  A    between atoms: _62  and  _64
REMARK   25  A    between atoms: _64  and  _65
REMARK   26  A    between atoms: _68  and  _70
REMARK   27  A    between atoms: _70  and  _71
REMARK   28  A    between atoms: _70  and  _73
REMARK   29  A    between atoms: _76  and  _78
REMARK   30  A    between atoms: _78  and  _79
REMARK   31  A    between atoms: _78  and  _81
REMARK   32  A    between atoms: _84  and  _86
REMARK   33  A    between atoms: _86  and  _87
REMARK   34  A    between atoms: _86  and  _89
REMARK   35  A    between atoms: _89  and  _90
REMARK   36  A    between atoms: _90  and  _91
REMARK   37  A    between atoms: _94  and  _96
REMARK   38  A    between atoms: _96  and  _97
REMARK   39  A    between atoms: _96  and  _99
REMARK   40  A    between atoms: _99  and  _100
REMARK   41  A    between atoms: _105  and  _106
REMARK   42  A    between atoms: _108  and  _110
REMARK   43  A    between atoms: _110  and  _111
REMARK   44  A    between atoms: _110  and  _113
REMARK   45  A    between atoms: _113  and  _114
REMARK   46  A    between atoms: _120  and  _122
REMARK   47  A    between atoms: _122  and  _123
REMARK   48  A    between atoms: _122  and  _125
REMARK   49  A    between atoms: _125  and  _126
REMARK   50  A    between atoms: _126  and  _127
REMARK   51  A    between atoms: _127  and  _128
REMARK   52  A    between atoms: _137  and  _139
REMARK   53  A    between atoms: _139  and  _140
REMARK   54  A    between atoms: _139  and  _142
REMARK   55  A    between atoms: _142  and  _143
REMARK   56  A    between atoms: _143  and  _144
REMARK   57  A    between atoms: _149  and  _151
REMARK   58  A    between atoms: _151  and  _152
REMARK   59  A    between atoms: _151  and  _154
REMARK   60  A    between atoms: _154  and  _155
REMARK   61  A    between atoms: _155  and  _156
REMARK   62  A    between atoms: _159  and  _161
REMARK   63  A    between atoms: _161  and  _162
REMARK   64  A    between atoms: _161  and  _164
REMARK   65  A    between atoms: _164  and  _165
REMARK   66  A    between atoms: _170  and  _171
REMARK   67  A    between atoms: _173  and  _175
REMARK   68  A    between atoms: _175  and  _176
REMARK   69  A    between atoms: _178  and  _180
REMARK   70  A    between atoms: _180  and  _181
REMARK   71  A    between atoms: _180  and  _183
REMARK   72  A    between atoms: _186  and  _188
REMARK   73  A    between atoms: _188  and  _189
REMARK   74  A    between atoms: _188  and  _191
REMARK   75  A    between atoms: _191  and  _192
REMARK   76  A    between atoms: _195  and  _197
REMARK   77  A    between atoms: _197  and  _198
REMARK   78  A    between atoms: _197  and  _200
REMARK   79  A    between atoms: _200  and  _201
REMARK   80  A    between atoms: _204  and  _206
REMARK   81  A    between atoms: _206  and  _207
REMARK   82  A    between atoms: _206  and  _209
REMARK   83  A    between atoms: _211  and  _213
REMARK   84  A    between atoms: _213  and  _214
REMARK   85  A    between atoms: _213  and  _216
REMARK   86  A    between atoms: _216  and  _217
REMARK   87  A    between atoms: _220  and  _222
REMARK   88  A    between atoms: _222  and  _223
REMARK   89  A    between atoms: _222  and  _225
REMARK   90  A    between atoms: _225  and  _226
REMARK   91  A    between atoms: _226  and  _227
REMARK   92  A    between atoms: _227  and  _228
REMARK   93  A    between atoms: _237  and  _239
REMARK   94  A    between atoms: _239  and  _240
REMARK   95  A    between atoms: _239  and  _242
REMARK   96  A    between atoms: _242  and  _243
REMARK   97  A    between atoms: _249  and  _251
REMARK   98  A    between atoms: _251  and  _252
REMARK   99  A    between atoms: _251  and  _254
REMARK  100  A    between atoms: _254  and  _255
REMARK  101  A    between atoms: _255  and  _256
REMARK  102  A    between atoms: _261  and  _263
REMARK  103  A    between atoms: _263  and  _264
REMARK  104  A    between atoms: _263  and  _266
REMARK  105  A    between atoms: _266  and  _267
REMARK  106  A    between atoms: _270  and  _272
REMARK  107  A    between atoms: _272  and  _273
REMARK  108  A    between atoms: _272  and  _275
REMARK  109  A    between atoms: _275  and  _276
REMARK  110  A    between atoms: _281  and  _283
REMARK  111  A    between atoms: _283  and  _284
REMARK  112  A    between atoms: _287  and  _289
REMARK  113  A    between atoms: _289  and  _290
REMARK  114  A    between atoms: _289  and  _292
REMARK  115  A    between atoms: _292  and  _293
REMARK  116  A    between atoms: _296  and  _298
REMARK  117  A    between atoms: _298  and  _299
REMARK  118  A    between atoms: _298  and  _301
REMARK  119  A    between atoms: _301  and  _302
REMARK  120  A    between atoms: _305  and  _307
REMARK  121  A    between atoms: _307  and  _308
REMARK  122  A    between atoms: _307  and  _310
REMARK  123  A    between atoms: _310  and  _311
REMARK  124  A    between atoms: _311  and  _312
REMARK  125  A    between atoms: _312  and  _313
REMARK  126  A    between atoms: _322  and  _324
REMARK  127  A    between atoms: _324  and  _325
REMARK  128  A    between atoms: _324  and  _327
REMARK  129  A    between atoms: _327  and  _328
REMARK  130  A    between atoms: _328  and  _329
REMARK  131  A    between atoms: _329  and  _330
REMARK  132  A    between atoms: _330  and  _331
REMARK  133  A    between atoms: _335  and  _337
REMARK  134  A    between atoms: _337  and  _338
REMARK  135  A    between atoms: _337  and  _340
REMARK  136  A    between atoms: _340  and  _341
REMARK  137  A    between atoms: _344  and  _346
REMARK  138  A    between atoms: _346  and  _347
REMARK  139  A    between atoms: _350  and  _352
REMARK  140  A    between atoms: _352  and  _353
REMARK  141  A    between atoms: _352  and  _355
REMARK  142  A    between atoms: _358  and  _360
REMARK  143  A    between atoms: _360  and  _361
REMARK  144  A    between atoms: _360  and  _363
REMARK  145  A    between atoms: _363  and  _364
REMARK  146  A    between atoms: _369  and  _371
REMARK  147  A    between atoms: _371  and  _372
REMARK  148  A    between atoms: _371  and  _374
REMARK  149  A    between atoms: _374  and  _375
REMARK  150  A    between atoms: _375  and  _376
REMARK  151  A    between atoms: _378  and  _380
REMARK  152  A    between atoms: _380  and  _381
REMARK  153  A    between atoms: _380  and  _383
REMARK  154  A    between atoms: _386  and  _388
REMARK  155  A    between atoms: _388  and  _389
REMARK  156  A    between atoms: _388  and  _391
REMARK  157  A    between atoms: _391  and  _392
REMARK  158  A    between atoms: _395  and  _397
REMARK  159  A    between atoms: _397  and  _398
REMARK  160  A    between atoms: _397  and  _400
REMARK  161  A    between atoms: _400  and  _401
REMARK  162  A    between atoms: _404  and  _406
REMARK  163  A    between atoms: _406  and  _407
REMARK  164  A    between atoms: _406  and  _409
REMARK  165  A    between atoms: _412  and  _414
REMARK  166  A    between atoms: _414  and  _415
REMARK  167  A    between atoms: _418  and  _420
REMARK  168  A    between atoms: _420  and  _421
REMARK  169  A    between atoms: _424  and  _426
REMARK  170  A    between atoms: _426  and  _427
REMARK  171  A    between atoms: _426  and  _429
REMARK  172  A    between atoms: _429  and  _430
REMARK  173  A    between atoms: _433  and  _435
REMARK  174  A    between atoms: _435  and  _436
REMARK  175  A    between atoms: _435  and  _438
REMARK  176  A    between atoms: _438  and  _439
REMARK  177  A    between atoms: _445  and  _447
REMARK  178  A    between atoms: _447  and  _448
REMARK  179  A    between atoms: _447  and  _450
REMARK  180  A    between atoms: _450  and  _451
REMARK  181  A    between atoms: _455  and  _456
REMARK  182  A    between atoms: _461  and  _463
REMARK  183  A    between atoms: _463  and  _464
REMARK  184  A    between atoms: _463  and  _466
REMARK  185  A    between atoms: _466  and  _467
REMARK  186  A    between atoms: _472  and  _474
REMARK  187  A    between atoms: _474  and  _475
REMARK  188  A    between atoms: _474  and  _477
REMARK  189  A    between atoms: _477  and  _478
REMARK  190  A    between atoms: _483  and  _485
REMARK  191  A    between atoms: _485  and  _486
REMARK  192  A    between atoms: _485  and  _488
REMARK  193  A    between atoms: _491  and  _493
REMARK  194  A    between atoms: _493  and  _494
REMARK  195  A    between atoms: _493  and  _496
REMARK  196  A    between atoms: _496  and  _497
REMARK  197  A    between atoms: _497  and  _498
REMARK  198  A    between atoms: _498  and  _499
REMARK  199  A    between atoms: _499  and  _500
REMARK  200  A    between atoms: _504  and  _506
REMARK  201  A    between atoms: _506  and  _507
REMARK  202  A    between atoms: _506  and  _509
REMARK  203  A    between atoms: _509  and  _510
REMARK  204  A    between atoms: _513  and  _515
REMARK  205  A    between atoms: _515  and  _516
REMARK  206  A    between atoms: _519  and  _521
REMARK  207  A    between atoms: _521  and  _522
REMARK  208  A    between atoms: _521  and  _524
REMARK  209  A    between atoms: _527  and  _529
REMARK  210  A    between atoms: _529  and  _530
REMARK  211  A    between atoms: _529  and  _532
REMARK  212  A    between atoms: _532  and  _533
REMARK  213  A    between atoms: _536  and  _538
REMARK  214  A    between atoms: _538  and  _539
REMARK  215  A    between atoms: _538  and  _541
REMARK  216  A    between atoms: _541  and  _542
REMARK  217  A    between atoms: _548  and  _550
REMARK  218  A    between atoms: _550  and  _551
REMARK  219  A    between atoms: _550  and  _553
REMARK  220  A    between atoms: _553  and  _554
REMARK  221  A    between atoms: _557  and  _559
REMARK  222  A    between atoms: _559  and  _560
REMARK  223  A    between atoms: _559  and  _562
REMARK  224  A    between atoms: _562  and  _563
REMARK                            x       y       z     vdW  Elec       q    Type
REMARK                         _______ _______ _______ _____ _____    ______ ____
ROOT
ATOM      1  N   PRO A   1      14.959  68.515  56.414  0.00  0.00    -0.212 NA
ATOM      2  CD  PRO A   1      15.060  67.596  57.559  0.00  0.00    +0.089 C 
ATOM      3  CG  PRO A   1      13.885  66.694  57.359  0.00  0.00    +0.021 C 
ATOM      4  CB  PRO A   1      13.727  66.579  55.876  0.00  0.00    +0.027 C 
ATOM      5  CA  PRO A   1      14.174  67.936  55.316  0.00  0.00    +0.137 C 
ENDROOT
BRANCH   5   6
ATOM      6  C   PRO A   1      12.961  68.777  54.921  0.00  0.00    +0.224 C 
ATOM      7  O   PRO A   1      12.455  68.626  53.809  0.00  0.00    -0.287 OA
ENDBRANCH   5   6
TORSDOF 1
REMARK  Name = ../refined-set-2016/4o2b/4o2b_pocket.pdb
REMARK  224 active torsions:
REMARK  status: ('A' for Active; 'I' for Inactive)
REMARK    1  A    between atoms: _1  and  _3
REMARK    2  A    between atoms: _3  and  _4
REMARK    3  A    between atoms: _3  and  _6
REMARK    4  A    between atoms: _6  and  _7
REMARK    5  A    between atoms: _7  and  _8
REMARK    6  A    between atoms: _13  and  _15
REMARK    7  A    between atoms: _15  and  _16
REMARK    8  A    between atoms: _19  and  _21
REMARK    9  A    between atoms: _21  and  _22
REMARK   10  A    between atoms: _21  and  _24
REMARK   11  A    between atoms: _24  and  _25
REMARK   12  A    between atoms: _31  and  _32
REMARK   13  A    between atoms: _37  and  _39
REMARK   14  A    between atoms: _39  and  _40
REMARK   15  A    between atoms: _39  and  _42
REMARK   16  A    between atoms: _45  and  _47
REMARK   17  A    between atoms: _47  and  _48
REMARK   18  A    between atoms: _47  and  _50
REMARK   19  A    between atoms: _50  and  _51
REMARK   20  A    between atoms: _53  and  _55
REMARK   21  A    between atoms: _55  and  _56
REMARK   22  A    between atoms: _55  and  _58
REMARK   23  A    between atoms: _58  and  _59
REMARK   24  A    between atoms: _62  and  _64
REMARK   25  A    between atoms: _64  and  _65
REMARK   26  A    between atoms: _68  and  _70
REMARK   27  A    between atoms: _70  and  _71
REMARK   28  A    between atoms: _70  and  _73
REMARK   29  A    between atoms: _76  and  _78
REMARK   30  A    between atoms: _78  and  _79
REMARK   31  A    between atoms: _78  and  _81
REMARK   32  A    between atoms: _84  and  _86
REMARK   33  A    between atoms: _86  and  _87
REMARK   34  A    between atoms: _86  and  _89
REMARK   35  A    between atoms: _89  and  _90
REMARK   36  A    between atoms: _90  and  _91
REMARK   37  A    between atoms: _94  and  _96
REMARK   38  A    between atoms: _96  and  _97
REMARK   39  A    between atoms: _96  and  _99
REMARK   40  A    between atoms: _99  and  _100
REMARK   41  A    between atoms: _105  and  _106
REMARK   42  A    between atoms: _108  and  _110
REMARK   43  A    between atoms: _110  and  _111
REMARK   44  A    between atoms: _110  and  _113
REMARK   45  A    between atoms: _113  and  _114
REMARK   46  A    between atoms: _120  and  _122
REMARK   47  A    between atoms: _122  and  _123
REMARK   48  A    between atoms: _122  and  _125
REMARK   49  A    between atoms: _125  and  _126
REMARK   50  A    between atoms: _126  and  _127
REMARK   51  A    between atoms: _127  and  _128
REMARK   52  A    between atoms: _137  and  _139
REMARK   53  A    between atoms: _139  and  _140
REMARK   54  A    between atoms: _139  and  _142
REMARK   55  A    between atoms: _142  and  _143
REMARK   56  A    between atoms: _143  and  _144
REMARK   57  A    between atoms: _149  and  _151
REMARK   58  A    between atoms: _151  and  _152
REMARK   59  A    between atoms: _151  and  _154
REMARK   60  A    between atoms: _154  and  _155
REMARK   61  A    between atoms: _155  and  _156
REMARK   62  A    between atoms: _159  and  _161
REMARK   63  A    between atoms: _161  and  _162
REMARK   64  A    between atoms: _161  and  _164
REMARK   65  A    between atoms: _164  and  _165
REMARK   66  A    between atoms: _170  and  _171
REMARK   67  A    between atoms: _173  and  _175
REMARK   68  A    between atoms: _175  and  _176
REMARK   69  A    between atoms: _178  and  _180
REMARK   70  A    between atoms: _180  and  _181
REMARK   71  A    between atoms: _180  and  _183
REMARK   72  A    between atoms: _186  and  _188
REMARK   73  A    between atoms: _188  and  _189
REMARK   74  A    between atoms: _188  and  _191
REMARK   75  A    between atoms: _191  and  _192
REMARK   76  A    between atoms: _195  and  _197
REMARK   77  A    between atoms: _197  and  _198
REMARK   78  A    between atoms: _197  and  _200
REMARK   79  A    between atoms: _200  and  _201
REMARK   80  A    between atoms: _204  and  _206
REMARK   81  A    between atoms: _206  and  _207
REMARK   82  A    between atoms: _206  and  _209
REMARK   83  A    between atoms: _211  and  _213
REMARK   84  A    between atoms: _213  and  _214
REMARK   85  A    between atoms: _213  and  _216
REMARK   86  A    between atoms: _216  and  _217
REMARK   87  A    between atoms: _220  and  _222
REMARK   88  A    between atoms: _222  and  _223
REMARK   89  A    between atoms: _222  and  _225
REMARK   90  A    between atoms: _225  and  _226
REMARK   91  A    between atoms: _226  and  _227
REMARK   92  A    between atoms: _227  and  _228
REMARK   93  A    between atoms: _237  and  _239
REMARK   94  A    between atoms: _239  and  _240
REMARK   95  A    between atoms: _239  and  _242
REMARK   96  A    between atoms: _242  and  _243
REMARK   97  A    between atoms: _249  and  _251
REMARK   98  A    between atoms: _251  and  _252
REMARK   99  A    between atoms: _251  and  _254
REMARK  100  A    between atoms: _254  and  _255
REMARK  101  A    between atoms: _255  and  _256
REMARK  102  A    between atoms: _261  and  _263
REMARK  103  A    between atoms: _263  and  _264
REMARK  104  A    between atoms: _263  and  _266
REMARK  105  A    between atoms: _266  and  _267
REMARK  106  A    between atoms: _270  and  _272
REMARK  107  A    between atoms: _272  and  _273
REMARK  108  A    between atoms: _272  and  _275
REMARK  109  A    between atoms: _275  and  _276
REMARK  110  A    between atoms: _281  and  _283
REMARK  111  A    between atoms: _283  and  _284
REMARK  112  A    between atoms: _287  and  _289
REMARK  113  A    between atoms: _289  and  _290
REMARK  114  A    between atoms: _289  and  _292
REMARK  115  A    between atoms: _292  and  _293
REMARK  116  A    between atoms: _296  and  _298
REMARK  117  A    between atoms: _298  and  _299
REMARK  118  A    between atoms: _298  and  _301
REMARK  119  A    between atoms: _301  and  _302
REMARK  120  A    between atoms: _305  and  _307
REMARK  121  A    between atoms: _307  and  _308
REMARK  122  A    between atoms: _307  and  _310
REMARK  123  A    between atoms: _310  and  _311
REMARK  124  A    between atoms: _311  and  _312
REMARK  125  A    between atoms: _312  and  _313
REMARK  126  A    between atoms: _322  and  _324
REMARK  127  A    between atoms: _324  and  _325
REMARK  128  A    between atoms: _324  and  _327
REMARK  129  A    between atoms: _327  and  _328
REMARK  130  A    between atoms: _328  and  _329
REMARK  131  A    between atoms: _329  and  _330
REMARK  132  A    between atoms: _330  and  _331
REMARK  133  A    between atoms: _335  and  _337
REMARK  134  A    between atoms: _337  and  _338
REMARK  135  A    between atoms: _337  and  _340
REMARK  136  A    between atoms: _340  and  _341
REMARK  137  A    between atoms: _344  and  _346
REMARK  138  A    between atoms: _346  and  _347
REMARK  139  A    between atoms: _350  and  _352
REMARK  140  A    between atoms: _352  and  _353
REMARK  141  A    between atoms: _352  and  _355
REMARK  142  A    between atoms: _358  and  _360
REMARK  143  A    between atoms: _360  and  _361
REMARK  144  A    between atoms: _360  and  _363
REMARK  145  A    between atoms: _363  and  _364
REMARK  146  A    between atoms: _369  and  _371
REMARK  147  A    between atoms: _371  and  _372
REMARK  148  A    between atoms: _371  and  _374
REMARK  149  A    between atoms: _374  and  _375
REMARK  150  A    between atoms: _375  and  _376
REMARK  151  A    between atoms: _378  and  _380
REMARK  152  A    between atoms: _380  and  _381
REMARK  153  A    between atoms: _380  and  _383
REMARK  154  A    between atoms: _386  and  _388
REMARK  155  A    between atoms: _388  and  _389
REMARK  156  A    between atoms: _388  and  _391
REMARK  157  A    between atoms: _391  and  _392
REMARK  158  A    between atoms: _395  and  _397
REMARK  159  A    between atoms: _397  and  _398
REMARK  160  A    between atoms: _397  and  _400
REMARK  161  A    between atoms: _400  and  _401
REMARK  162  A    between atoms: _404  and  _406
REMARK  163  A    between atoms: _406  and  _407
REMARK  164  A    between atoms: _406  and  _409
REMARK  165  A    between atoms: _412  and  _414
REMARK  166  A    between atoms: _414  and  _415
REMARK  167  A    between atoms: _418  and  _420
REMARK  168  A    between atoms: _420  and  _421
REMARK  169  A    between atoms: _424  and  _426
REMARK  170  A    between atoms: _426  and  _427
REMARK  171  A    between atoms: _426  and  _429
REMARK  172  A    between atoms: _429  and  _430
REMARK  173  A    between atoms: _433  and  _435
REMARK  174  A    between atoms: _435  and  _436
REMARK  175  A    between atoms: _435  and  _438
REMARK  176  A    between atoms: _438  and  _439
REMARK  177  A    between atoms: _445  and  _447
REMARK  178  A    between atoms: _447  and  _448
REMARK  179  A    between atoms: _447  and  _450
REMARK  180  A    between atoms: _450  and  _451
REMARK  181  A    between atoms: _455  and  _456
REMARK  182  A    between atoms: _461  and  _463
REMARK  183  A    between atoms: _463  and  _464
REMARK  184  A    between atoms: _463  and  _466
REMARK  185  A    between atoms: _466  and  _467
REMARK  186  A    between atoms: _472  and  _474
REMARK  187  A    between atoms: _474  and  _475
REMARK  188  A    between atoms: _474  and  _477
REMARK  189  A    between atoms: _477  and  _478
REMARK  190  A    between atoms: _483  and  _485
REMARK  191  A    between atoms: _485  and  _486
REMARK  192  A    between atoms: _485  and  _488
REMARK  193  A    between atoms: _491  and  _493
REMARK  194  A    between atoms: _493  and  _494
REMARK  195  A    between atoms: _493  and  _496
REMARK  196  A    between atoms: _496  and  _497
REMARK  197  A    between atoms: _497  and  _498
REMARK  198  A    between atoms: _498  and  _499
REMARK  199  A    between atoms: _499  and  _500
REMARK  200  A    between atoms: _504  and  _506
REMARK  201  A    between atoms: _506  and  _507
REMARK  202  A    between atoms: _506  and  _509
REMARK  203  A    between atoms: _509  and  _510
REMARK  204  A    between atoms: _513  and  _515
REMARK  205  A    between atoms: _515  and  _516
REMARK  206  A    between atoms: _519  and  _521
REMARK  207  A    between atoms: _521  and  _522
REMARK  208  A    between atoms: _521  and  _524
REMARK  209  A    between atoms: _527  and  _529
REMARK  210  A    between atoms: _529  and  _530
REMARK  211  A    between atoms: _529  and  _532
REMARK  212  A    between atoms: _532  and  _533
REMARK  213  A    between atoms: _536  and  _538
REMARK  214  A    between atoms: _538  and  _539
REMARK  215  A    between atoms: _538  and  _541
REMARK  216  A    between atoms: _541  and  _542
REMARK  217  A    between atoms: _548  and  _550
REMARK  218  A    between atoms: _550  and  _551
REMARK  219  A    between atoms: _550  and  _553
REMARK  220  A    between atoms: _553  and  _554
REMARK  221  A    between atoms: _557  and  _559
REMARK  222  A    between atoms: _559  and  _560
REMARK  223  A    between atoms: _559  and  _562
REMARK  224  A    between atoms: _562  and  _563
REMARK                            x       y       z     vdW  Elec       q    Type
REMARK                         _______ _______ _______ _____ _____    ______ ____
ROOT
ATOM      1  CA  ALA A   4      19.861  66.406  49.862  0.00  0.00    +0.149 C 
ATOM      2  CB  ALA A   4      21.097  66.716  49.045  0.00  0.00    +0.031 C 
ENDROOT
BRANCH   1   4
ATOM      3  C   THR A   3      18.198  67.938  50.753  0.00  0.00    +0.243 C 
ATOM      4  N   ALA A   4      19.467  67.568  50.639  0.00  0.00    -0.297 N 
ATOM      5  H   ALA A   4      20.201  68.126  51.120  0.00  0.00    +0.150 HD
ATOM      6  O   THR A   3      17.286  67.428  50.109  0.00  0.00    -0.273 OA
BRANCH   3   7
ATOM      7  CA  THR A   3      17.925  69.059  51.738  0.00  0.00    +0.176 C 
BRANCH   7   9
ATOM      8  C   SER A   2      16.575  70.866  50.867  0.00  0.00    +0.243 C 
ATOM      9  N   THR A   3      16.637  69.686  51.472  0.00  0.00    -0.295 N 
ATOM     10  H   THR A   3      15.760  69.206  51.758  0.00  0.00    +0.150 HD
ATOM     11  O   SER A   2      17.576  71.530  50.602  0.00  0.00    -0.273 OA
BRANCH   8  12
ATOM     12  CA  SER A   2      15.186  71.391  50.498  0.00  0.00    +0.178 C 
BRANCH  12  15
ATOM     13  C   VAL A   1      14.760  72.456  52.686  0.00  0.00    +0.238 C 
ATOM     14  O   VAL A   1      15.955  72.633  52.942  0.00  0.00    -0.274 OA
ATOM     15  N   SER A   2      14.325  71.800  51.612  0.00  0.00    -0.295 N 
ATOM     16  H   SER A   2      13.314  71.564  51.560  0.00  0.00    +0.150 HD
BRANCH  13  17
ATOM     17  CA  VAL A   1      13.669  72.977  53.627  0.00  0.00    +0.145 C 
BRANCH  17  18
ATOM     18  CB  VAL A   1      14.203  74.188  54.425  0.00  0.00    +0.025 C 
ATOM     19  CG2 VAL A   1      13.179  74.633  55.459  0.00  0.00    +0.002 C 
ATOM     20  CG1 VAL A   1      14.533  75.338  53.488  0.00  0.00    +0.002 C 
ENDBRANCH  17  18
BRANCH  17  21
ATOM     21  N   VAL A   1      13.138  71.939  54.508  0.00  0.00    -0.238 NA
ATOM     22  H   VAL A   1      13.783  71.441  55.154  0.00  0.00    +0.142 HD
ENDBRANCH  17  21
ENDBRANCH  13  17
ENDBRANCH  12  15
BRANCH  12  23
ATOM     23  CB  SER A   2      15.330  72.543  49.499  0.00  0.00    +0.166 C 
BRANCH  23  24
ATOM     24  OG  SER A   2      14.077  72.873  48.928  0.00  0.00    -0.380 OA
ATOM     25  H   SER A   2      13.713  72.083  48.455  0.00  0.00    +0.211 HD
ENDBRANCH  23  24
ENDBRANCH  12  23
ENDBRANCH   8  12
ENDBRANCH   7   9
BRANCH   7  26
ATOM     26  CB  THR A   3      18.014  68.480  53.158  0.00  0.00    +0.137 C 
ATOM     27  CG2 THR A   3      18.194  69.582  54.169  0.00  0.00    +0.034 C 
BRANCH  26  28
ATOM     28  OG1 THR A   3      16.820  67.747  53.457  0.00  0.00    -0.382 OA
ATOM     29  HG1 THR A   3      16.882  67.376  54.373  0.00  0.00    +0.210 HD
ENDBRANCH  26  28
ENDBRANCH   7  26
ENDBRANCH   3   7
ENDBRANCH   1   4
BRANCH   1  30
ATOM     30  C   ALA A   4      20.130  65.273  50.843  0.00  0.00    +0.241 C 
ATOM     31  O   ALA A   4      20.386  65.520  52.021  0.00  0.00    -0.273 OA
ATOM     32  N   VAL A   5      20.073  64.035  50.363  0.00  0.00    -0.297 N 
ATOM     33  H   VAL A   5      19.898  63.889  49.348  0.00  0.00    +0.150 HD
BRANCH  32  34
ATOM     34  CA  VAL A   5      20.252  62.876  51.234  0.00  0.00    +0.149 C 
BRANCH  34  35
ATOM     35  C   VAL A   5      21.669  62.760  51.800  0.00  0.00    +0.241 C 
ATOM     36  O   VAL A   5      21.876  62.120  52.830  0.00  0.00    -0.273 OA
ATOM     37  N   VAL A   6      22.639  63.381  51.135  0.00  0.00    -0.297 N 
ATOM     38  H   VAL A   6      22.401  63.948  50.297  0.00  0.00    +0.150 HD
BRANCH  37  39
ATOM     39  CA  VAL A   6      24.035  63.281  51.561  0.00  0.00    +0.149 C 
BRANCH  39  40
ATOM     40  C   VAL A   6      24.463  64.408  52.503  0.00  0.00    +0.241 C 
ATOM     41  O   VAL A   6      25.602  64.436  52.970  0.00  0.00    -0.273 OA
ATOM     42  N   GLU A   7      23.553  65.334  52.781  0.00  0.00    -0.298 N 
ATOM     43  H   GLU A   7      22.603  65.255  52.365  0.00  0.00    +0.150 HD
BRANCH  42  44
ATOM     44  CA  GLU A   7      23.858  66.463  53.660  0.00  0.00    +0.137 C 
BRANCH  44  45
ATOM     45  C   GLU A   7      24.306  66.115  55.095  0.00  0.00    +0.227 C 
ATOM     46  O   GLU A   7      25.110  66.848  55.673  0.00  0.00    -0.286 OA
ENDBRANCH  44  45
BRANCH  44  47
ATOM     47  CB  GLU A   7      22.711  67.480  53.661  0.00  0.00    +0.039 C 
BRANCH  47  48
ATOM     48  CG  GLU A   7      22.419  68.043  52.277  0.00  0.00    +0.116 C 
BRANCH  48  49
ATOM     49  CD  GLU A   7      21.659  69.353  52.313  0.00  0.00    +0.365 C 
ATOM     50  OE2 GLU A   7      21.438  69.891  53.418  0.00  0.00    -0.246 OA
ATOM     51  OE1 GLU A   7      21.290  69.849  51.228  0.00  0.00    -0.246 OA
ENDBRANCH  48  49
ENDBRANCH  47  48
ENDBRANCH  44  47
ENDBRANCH  42  44
ENDBRANCH  39  40
BRANCH  39  52
ATOM     52  CB  VAL A   6      24.999  63.248  50.357  0.00  0.00    +0.027 C 
ATOM     53  CG2 VAL A   6      24.785  61.983  49.533  0.00  0.00    +0.002 C 
ATOM     54  CG1 VAL A   6      24.824  64.496  49.503  0.00  0.00    +0.002 C 
ENDBRANCH  39  52
ENDBRANCH  37  39
ENDBRANCH  34  35
BRANCH  34  55
ATOM     55  CB  VAL A   5      19.877  61.554  50.521  0.00  0.00    +0.027 C 
ATOM     56  CG2 VAL A   5      18.387  61.515  50.219  0.00  0.00    +0.002 C 
ATOM     57  CG1 VAL A   5      20.693  61.382  49.249  0.00  0.00    +0.002 C 
ENDBRANCH  34  55
ENDBRANCH  32  34
ENDBRANCH   1  30
TORSDOF 24
REMARK  Name = ../refined-set-2016/4o2b/4o2b_pocket.pdb
REMARK  224 active torsions:
REMARK  status: ('A' for Active; 'I' for Inactive)
REMARK    1  A    between atoms: _1  and  _3
REMARK    2  A    between atoms: _3  and  _4
REMARK    3  A    between atoms: _3  and  _6
REMARK    4  A    between atoms: _6  and  _7
REMARK    5  A    between atoms: _7  and  _8
REMARK    6  A    between atoms: _13  and  _15
REMARK    7  A    between atoms: _15  and  _16
REMARK    8  A    between atoms: _19  and  _21
REMARK    9  A    between atoms: _21  and  _22
REMARK   10  A    between atoms: _21  and  _24
REMARK   11  A    between atoms: _24  and  _25
REMARK   12  A    between atoms: _31  and  _32
REMARK   13  A    between atoms: _37  and  _39
REMARK   14  A    between atoms: _39  and  _40
REMARK   15  A    between atoms: _39  and  _42
REMARK   16  A    between atoms: _45  and  _47
REMARK   17  A    between atoms: _47  and  _48
REMARK   18  A    between atoms: _47  and  _50
REMARK   19  A    between atoms: _50  and  _51
REMARK   20  A    between atoms: _53  and  _55
REMARK   21  A    between atoms: _55  and  _56
REMARK   22  A    between atoms: _55  and  _58
REMARK   23  A    between atoms: _58  and  _59
REMARK   24  A    between atoms: _62  and  _64
REMARK   25  A    between atoms: _64  and  _65
REMARK   26  A    between atoms: _68  and  _70
REMARK   27  A    between atoms: _70  and  _71
REMARK   28  A    between atoms: _70  and  _73
REMARK   29  A    between atoms: _76  and  _78
REMARK   30  A    between atoms: _78  and  _79
REMARK   31  A    between atoms: _78  and  _81
REMARK   32  A    between atoms: _84  and  _86
REMARK   33  A    between atoms: _86  and  _87
REMARK   34  A    between atoms: _86  and  _89
REMARK   35  A    between atoms: _89  and  _90
REMARK   36  A    between atoms: _90  and  _91
REMARK   37  A    between atoms: _94  and  _96
REMARK   38  A    between atoms: _96  and  _97
REMARK   39  A    between atoms: _96  and  _99
REMARK   40  A    between atoms: _99  and  _100
REMARK   41  A    between atoms: _105  and  _106
REMARK   42  A    between atoms: _108  and  _110
REMARK   43  A    between atoms: _110  and  _111
REMARK   44  A    between atoms: _110  and  _113
REMARK   45  A    between atoms: _113  and  _114
REMARK   46  A    between atoms: _120  and  _122
REMARK   47  A    between atoms: _122  and  _123
REMARK   48  A    between atoms: _122  and  _125
REMARK   49  A    between atoms: _125  and  _126
REMARK   50  A    between atoms: _126  and  _127
REMARK   51  A    between atoms: _127  and  _128
REMARK   52  A    between atoms: _137  and  _139
REMARK   53  A    between atoms: _139  and  _140
REMARK   54  A    between atoms: _139  and  _142
REMARK   55  A    between atoms: _142  and  _143
REMARK   56  A    between atoms: _143  and  _144
REMARK   57  A    between atoms: _149  and  _151
REMARK   58  A    between atoms: _151  and  _152
REMARK   59  A    between atoms: _151  and  _154
REMARK   60  A    between atoms: _154  and  _155
REMARK   61  A    between atoms: _155  and  _156
REMARK   62  A    between atoms: _159  and  _161
REMARK   63  A    between atoms: _161  and  _162
REMARK   64  A    between atoms: _161  and  _164
REMARK   65  A    between atoms: _164  and  _165
REMARK   66  A    between atoms: _170  and  _171
REMARK   67  A    between atoms: _173  and  _175
REMARK   68  A    between atoms: _175  and  _176
REMARK   69  A    between atoms: _178  and  _180
REMARK   70  A    between atoms: _180  and  _181
REMARK   71  A    between atoms: _180  and  _183
REMARK   72  A    between atoms: _186  and  _188
REMARK   73  A    between atoms: _188  and  _189
REMARK   74  A    between atoms: _188  and  _191
REMARK   75  A    between atoms: _191  and  _192
REMARK   76  A    between atoms: _195  and  _197
REMARK   77  A    between atoms: _197  and  _198
REMARK   78  A    between atoms: _197  and  _200
REMARK   79  A    between atoms: _200  and  _201
REMARK   80  A    between atoms: _204  and  _206
REMARK   81  A    between atoms: _206  and  _207
REMARK   82  A    between atoms: _206  and  _209
REMARK   83  A    between atoms: _211  and  _213
REMARK   84  A    between atoms: _213  and  _214
REMARK   85  A    between atoms: _213  and  _216
REMARK   86  A    between atoms: _216  and  _217
REMARK   87  A    between atoms: _220  and  _222
REMARK   88  A    between atoms: _222  and  _223
REMARK   89  A    between atoms: _222  and  _225
REMARK   90  A    between atoms: _225  and  _226
REMARK   91  A    between atoms: _226  and  _227
REMARK   92  A    between atoms: _227  and  _228
REMARK   93  A    between atoms: _237  and  _239
REMARK   94  A    between atoms: _239  and  _240
REMARK   95  A    between atoms: _239  and  _242
REMARK   96  A    between atoms: _242  and  _243
REMARK   97  A    between atoms: _249  and  _251
REMARK   98  A    between atoms: _251  and  _252
REMARK   99  A    between atoms: _251  and  _254
REMARK  100  A    between atoms: _254  and  _255
REMARK  101  A    between atoms: _255  and  _256
REMARK  102  A    between atoms: _261  and  _263
REMARK  103  A    between atoms: _263  and  _264
REMARK  104  A    between atoms: _263  and  _266
REMARK  105  A    between atoms: _266  and  _267
REMARK  106  A    between atoms: _270  and  _272
REMARK  107  A    between atoms: _272  and  _273
REMARK  108  A    between atoms: _272  and  _275
REMARK  109  A    between atoms: _275  and  _276
REMARK  110  A    between atoms: _281  and  _283
REMARK  111  A    between atoms: _283  and  _284
REMARK  112  A    between atoms: _287  and  _289
REMARK  113  A    between atoms: _289  and  _290
REMARK  114  A    between atoms: _289  and  _292
REMARK  115  A    between atoms: _292  and  _293
REMARK  116  A    between atoms: _296  and  _298
REMARK  117  A    between atoms: _298  and  _299
REMARK  118  A    between atoms: _298  and  _301
REMARK  119  A    between atoms: _301  and  _302
REMARK  120  A    between atoms: _305  and  _307
REMARK  121  A    between atoms: _307  and  _308
REMARK  122  A    between atoms: _307  and  _310
REMARK  123  A    between atoms: _310  and  _311
REMARK  124  A    between atoms: _311  and  _312
REMARK  125  A    between atoms: _312  and  _313
REMARK  126  A    between atoms: _322  and  _324
REMARK  127  A    between atoms: _324  and  _325
REMARK  128  A    between atoms: _324  and  _327
REMARK  129  A    between atoms: _327  and  _328
REMARK  130  A    between atoms: _328  and  _329
REMARK  131  A    between atoms: _329  and  _330
REMARK  132  A    between atoms: _330  and  _331
REMARK  133  A    between atoms: _335  and  _337
REMARK  134  A    between atoms: _337  and  _338
REMARK  135  A    between atoms: _337  and  _340
REMARK  136  A    between atoms: _340  and  _341
REMARK  137  A    between atoms: _344  and  _346
REMARK  138  A    between atoms: _346  and  _347
REMARK  139  A    between atoms: _350  and  _352
REMARK  140  A    between atoms: _352  and  _353
REMARK  141  A    between atoms: _352  and  _355
REMARK  142  A    between atoms: _358  and  _360
REMARK  143  A    between atoms: _360  and  _361
REMARK  144  A    between atoms: _360  and  _363
REMARK  145  A    between atoms: _363  and  _364
REMARK  146  A    between atoms: _369  and  _371
REMARK  147  A    between atoms: _371  and  _372
REMARK  148  A    between atoms: _371  and  _374
REMARK  149  A    between atoms: _374  and  _375
REMARK  150  A    between atoms: _375  and  _376
REMARK  151  A    between atoms: _378  and  _380
REMARK  152  A    between atoms: _380  and  _381
REMARK  153  A    between atoms: _380  and  _383
REMARK  154  A    between atoms: _386  and  _388
REMARK  155  A    between atoms: _388  and  _389
REMARK  156  A    between atoms: _388  and  _391
REMARK  157  A    between atoms: _391  and  _392
REMARK  158  A    between atoms: _395  and  _397
REMARK  159  A    between atoms: _397  and  _398
REMARK  160  A    between atoms: _397  and  _400
REMARK  161  A    between atoms: _400  and  _401
REMARK  162  A    between atoms: _404  and  _406
REMARK  163  A    between atoms: _406  and  _407
REMARK  164  A    between atoms: _406  and  _409
REMARK  165  A    between atoms: _412  and  _414
REMARK  166  A    between atoms: _414  and  _415
REMARK  167  A    between atoms: _418  and  _420
REMARK  168  A    between atoms: _420  and  _421
REMARK  169  A    between atoms: _424  and  _426
REMARK  170  A    between atoms: _426  and  _427
REMARK  171  A    between atoms: _426  and  _429
REMARK  172  A    between atoms: _429  and  _430
REMARK  173  A    between atoms: _433  and  _435
REMARK  174  A    between atoms: _435  and  _436
REMARK  175  A    between atoms: _435  and  _438
REMARK  176  A    between atoms: _438  and  _439
REMARK  177  A    between atoms: _445  and  _447
REMARK  178  A    between atoms: _447  and  _448
REMARK  179  A    between atoms: _447  and  _450
REMARK  180  A    between atoms: _450  and  _451
REMARK  181  A    between atoms: _455  and  _456
REMARK  182  A    between atoms: _461  and  _463
REMARK  183  A    between atoms: _463  and  _464
REMARK  184  A    between atoms: _463  and  _466
REMARK  185  A    between atoms: _466  and  _467
REMARK  186  A    between atoms: _472  and  _474
REMARK  187  A    between atoms: _474  and  _475
REMARK  188  A    between atoms: _474  and  _477
REMARK  189  A    between atoms: _477  and  _478
REMARK  190  A    between atoms: _483  and  _485
REMARK  191  A    between atoms: _485  and  _486
REMARK  192  A    between atoms: _485  and  _488
REMARK  193  A    between atoms: _491  and  _493
REMARK  194  A    between atoms: _493  and  _494
REMARK  195  A    between atoms: _493  and  _496
REMARK  196  A    between atoms: _496  and  _497
REMARK  197  A    between atoms: _497  and  _498
REMARK  198  A    between atoms: _498  and  _499
REMARK  199  A    between atoms: _499  and  _500
REMARK  200  A    between atoms: _504  and  _506
REMARK  201  A    between atoms: _506  and  _507
REMARK  202  A    between atoms: _506  and  _509
REMARK  203  A    between atoms: _509  and  _510
REMARK  204  A    between atoms: _513  and  _515
REMARK  205  A    between atoms: _515  and  _516
REMARK  206  A    between atoms: _519  and  _521
REMARK  207  A    between atoms: _521  and  _522
REMARK  208  A    between atoms: _521  and  _524
REMARK  209  A    between atoms: _527  and  _529
REMARK  210  A    between atoms: _529  and  _530
REMARK  211  A    between atoms: _529  and  _532
REMARK  212  A    between atoms: _532  and  _533
REMARK  213  A    between atoms: _536  and  _538
REMARK  214  A    between atoms: _538  and  _539
REMARK  215  A    between atoms: _538  and  _541
REMARK  216  A    between atoms: _541  and  _542
REMARK  217  A    between atoms: _548  and  _550
REMARK  218  A    between atoms: _550  and  _551
REMARK  219  A    between atoms: _550  and  _553
REMARK  220  A    between atoms: _553  and  _554
REMARK  221  A    between atoms: _557  and  _559
REMARK  222  A    between atoms: _559  and  _560
REMARK  223  A    between atoms: _559  and  _562
REMARK  224  A    between atoms: _562  and  _563
REMARK                            x       y       z     vdW  Elec       q    Type
REMARK                         _______ _______ _______ _____ _____    ______ ____
ROOT
ATOM      1  CG  TYR A   1      15.719  79.616  49.791  0.00  0.00    -0.020 A 
ATOM      2  CD2 TYR A   1      15.898  78.912  50.976  0.00  0.00    -0.001 A 
ATOM      3  CE2 TYR A   1      16.318  77.594  50.968  0.00  0.00    +0.036 A 
ATOM      4  CZ  TYR A   1      16.560  76.962  49.765  0.00  0.00    +0.134 A 
ATOM      5  CE1 TYR A   1      16.387  77.638  48.575  0.00  0.00    +0.036 A 
ATOM      6  CD1 TYR A   1      15.969  78.958  48.593  0.00  0.00    -0.001 A 
ENDROOT
BRANCH   4   7
ATOM      7  OH  TYR A   1      16.977  75.651  49.755  0.00  0.00    -0.506 OA
ATOM      8  HH  TYR A   1      17.049  75.322  50.686  0.00  0.00    +0.292 HD
ENDBRANCH   4   7
BRANCH   1   9
ATOM      9  CB  TYR A   1      15.260  81.059  49.806  0.00  0.00    +0.051 C 
BRANCH   9  10
ATOM     10  CA  TYR A   1      14.182  81.357  50.851  0.00  0.00    +0.137 C 
BRANCH  10  11
ATOM     11  N   TYR A   1      12.859  81.016  50.343  0.00  0.00    -0.239 NA
ATOM     12  H   TYR A   1      12.756  80.711  49.354  0.00  0.00    +0.142 HD
ENDBRANCH  10  11
BRANCH  10  13
ATOM     13  C   TYR A   1      14.243  82.821  51.279  0.00  0.00    +0.224 C 
ATOM     14  O   TYR A   1      14.927  83.162  52.243  0.00  0.00    -0.287 OA
ENDBRANCH  10  13
ENDBRANCH   9  10
ENDBRANCH   1   9
TORSDOF 5
REMARK  Name = ../refined-set-2016/4o2b/4o2b_pocket.pdb
REMARK  224 active torsions:
REMARK  status: ('A' for Active; 'I' for Inactive)
REMARK    1  A    between atoms: _1  and  _3
REMARK    2  A    between atoms: _3  and  _4
REMARK    3  A    between atoms: _3  and  _6
REMARK    4  A    between atoms: _6  and  _7
REMARK    5  A    between atoms: _7  and  _8
REMARK    6  A    between atoms: _13  and  _15
REMARK    7  A    between atoms: _15  and  _16
REMARK    8  A    between atoms: _19  and  _21
REMARK    9  A    between atoms: _21  and  _22
REMARK   10  A    between atoms: _21  and  _24
REMARK   11  A    between atoms: _24  and  _25
REMARK   12  A    between atoms: _31  and  _32
REMARK   13  A    between atoms: _37  and  _39
REMARK   14  A    between atoms: _39  and  _40
REMARK   15  A    between atoms: _39  and  _42
REMARK   16  A    between atoms: _45  and  _47
REMARK   17  A    between atoms: _47  and  _48
REMARK   18  A    between atoms: _47  and  _50
REMARK   19  A    between atoms: _50  and  _51
REMARK   20  A    between atoms: _53  and  _55
REMARK   21  A    between atoms: _55  and  _56
REMARK   22  A    between atoms: _55  and  _58
REMARK   23  A    between atoms: _58  and  _59
REMARK   24  A    between atoms: _62  and  _64
REMARK   25  A    between atoms: _64  and  _65
REMARK   26  A    between atoms: _68  and  _70
REMARK   27  A    between atoms: _70  and  _71
REMARK   28  A    between atoms: _70  and  _73
REMARK   29  A    between atoms: _76  and  _78
REMARK   30  A    between atoms: _78  and  _79
REMARK   31  A    between atoms: _78  and  _81
REMARK   32  A    between atoms: _84  and  _86
REMARK   33  A    between atoms: _86  and  _87
REMARK   34  A    between atoms: _86  and  _89
REMARK   35  A    between atoms: _89  and  _90
REMARK   36  A    between atoms: _90  and  _91
REMARK   37  A    between atoms: _94  and  _96
REMARK   38  A    between atoms: _96  and  _97
REMARK   39  A    between atoms: _96  and  _99
REMARK   40  A    between atoms: _99  and  _100
REMARK   41  A    between atoms: _105  and  _106
REMARK   42  A    between atoms: _108  and  _110
REMARK   43  A    between atoms: _110  and  _111
REMARK   44  A    between atoms: _110  and  _113
REMARK   45  A    between atoms: _113  and  _114
REMARK   46  A    between atoms: _120  and  _122
REMARK   47  A    between atoms: _122  and  _123
REMARK   48  A    between atoms: _122  and  _125
REMARK   49  A    between atoms: _125  and  _126
REMARK   50  A    between atoms: _126  and  _127
REMARK   51  A    between atoms: _127  and  _128
REMARK   52  A    between atoms: _137  and  _139
REMARK   53  A    between atoms: _139  and  _140
REMARK   54  A    between atoms: _139  and  _142
REMARK   55  A    between atoms: _142  and  _143
REMARK   56  A    between atoms: _143  and  _144
REMARK   57  A    between atoms: _149  and  _151
REMARK   58  A    between atoms: _151  and  _152
REMARK   59  A    between atoms: _151  and  _154
REMARK   60  A    between atoms: _154  and  _155
REMARK   61  A    between atoms: _155  and  _156
REMARK   62  A    between atoms: _159  and  _161
REMARK   63  A    between atoms: _161  and  _162
REMARK   64  A    between atoms: _161  and  _164
REMARK   65  A    between atoms: _164  and  _165
REMARK   66  A    between atoms: _170  and  _171
REMARK   67  A    between atoms: _173  and  _175
REMARK   68  A    between atoms: _175  and  _176
REMARK   69  A    between atoms: _178  and  _180
REMARK   70  A    between atoms: _180  and  _181
REMARK   71  A    between atoms: _180  and  _183
REMARK   72  A    between atoms: _186  and  _188
REMARK   73  A    between atoms: _188  and  _189
REMARK   74  A    between atoms: _188  and  _191
REMARK   75  A    between atoms: _191  and  _192
REMARK   76  A    between atoms: _195  and  _197
REMARK   77  A    between atoms: _197  and  _198
REMARK   78  A    between atoms: _197  and  _200
REMARK   79  A    between atoms: _200  and  _201
REMARK   80  A    between atoms: _204  and  _206
REMARK   81  A    between atoms: _206  and  _207
REMARK   82  A    between atoms: _206  and  _209
REMARK   83  A    between atoms: _211  and  _213
REMARK   84  A    between atoms: _213  and  _214
REMARK   85  A    between atoms: _213  and  _216
REMARK   86  A    between atoms: _216  and  _217
REMARK   87  A    between atoms: _220  and  _222
REMARK   88  A    between atoms: _222  and  _223
REMARK   89  A    between atoms: _222  and  _225
REMARK   90  A    between atoms: _225  and  _226
REMARK   91  A    between atoms: _226  and  _227
REMARK   92  A    between atoms: _227  and  _228
REMARK   93  A    between atoms: _237  and  _239
REMARK   94  A    between atoms: _239  and  _240
REMARK   95  A    between atoms: _239  and  _242
REMARK   96  A    between atoms: _242  and  _243
REMARK   97  A    between atoms: _249  and  _251
REMARK   98  A    between atoms: _251  and  _252
REMARK   99  A    between atoms: _251  and  _254
REMARK  100  A    between atoms: _254  and  _255
REMARK  101  A    between atoms: _255  and  _256
REMARK  102  A    between atoms: _261  and  _263
REMARK  103  A    between atoms: _263  and  _264
REMARK  104  A    between atoms: _263  and  _266
REMARK  105  A    between atoms: _266  and  _267
REMARK  106  A    between atoms: _270  and  _272
REMARK  107  A    between atoms: _272  and  _273
REMARK  108  A    between atoms: _272  and  _275
REMARK  109  A    between atoms: _275  and  _276
REMARK  110  A    between atoms: _281  and  _283
REMARK  111  A    between atoms: _283  and  _284
REMARK  112  A    between atoms: _287  and  _289
REMARK  113  A    between atoms: _289  and  _290
REMARK  114  A    between atoms: _289  and  _292
REMARK  115  A    between atoms: _292  and  _293
REMARK  116  A    between atoms: _296  and  _298
REMARK  117  A    between atoms: _298  and  _299
REMARK  118  A    between atoms: _298  and  _301
REMARK  119  A    between atoms: _301  and  _302
REMARK  120  A    between atoms: _305  and  _307
REMARK  121  A    between atoms: _307  and  _308
REMARK  122  A    between atoms: _307  and  _310
REMARK  123  A    between atoms: _310  and  _311
REMARK  124  A    between atoms: _311  and  _312
REMARK  125  A    between atoms: _312  and  _313
REMARK  126  A    between atoms: _322  and  _324
REMARK  127  A    between atoms: _324  and  _325
REMARK  128  A    between atoms: _324  and  _327
REMARK  129  A    between atoms: _327  and  _328
REMARK  130  A    between atoms: _328  and  _329
REMARK  131  A    between atoms: _329  and  _330
REMARK  132  A    between atoms: _330  and  _331
REMARK  133  A    between atoms: _335  and  _337
REMARK  134  A    between atoms: _337  and  _338
REMARK  135  A    between atoms: _337  and  _340
REMARK  136  A    between atoms: _340  and  _341
REMARK  137  A    between atoms: _344  and  _346
REMARK  138  A    between atoms: _346  and  _347
REMARK  139  A    between atoms: _350  and  _352
REMARK  140  A    between atoms: _352  and  _353
REMARK  141  A    between atoms: _352  and  _355
REMARK  142  A    between atoms: _358  and  _360
REMARK  143  A    between atoms: _360  and  _361
REMARK  144  A    between atoms: _360  and  _363
REMARK  145  A    between atoms: _363  and  _364
REMARK  146  A    between atoms: _369  and  _371
REMARK  147  A    between atoms: _371  and  _372
REMARK  148  A    between atoms: _371  and  _374
REMARK  149  A    between atoms: _374  and  _375
REMARK  150  A    between atoms: _375  and  _376
REMARK  151  A    between atoms: _378  and  _380
REMARK  152  A    between atoms: _380  and  _381
REMARK  153  A    between atoms: _380  and  _383
REMARK  154  A    between atoms: _386  and  _388
REMARK  155  A    between atoms: _388  and  _389
REMARK  156  A    between atoms: _388  and  _391
REMARK  157  A    between atoms: _391  and  _392
REMARK  158  A    between atoms: _395  and  _397
REMARK  159  A    between atoms: _397  and  _398
REMARK  160  A    between atoms: _397  and  _400
REMARK  161  A    between atoms: _400  and  _401
REMARK  162  A    between atoms: _404  and  _406
REMARK  163  A    between atoms: _406  and  _407
REMARK  164  A    between atoms: _406  and  _409
REMARK  165  A    between atoms: _412  and  _414
REMARK  166  A    between atoms: _414  and  _415
REMARK  167  A    between atoms: _418  and  _420
REMARK  168  A    between atoms: _420  and  _421
REMARK  169  A    between atoms: _424  and  _426
REMARK  170  A    between atoms: _426  and  _427
REMARK  171  A    between atoms: _426  and  _429
REMARK  172  A    between atoms: _429  and  _430
REMARK  173  A    between atoms: _433  and  _435
REMARK  174  A    between atoms: _435  and  _436
REMARK  175  A    between atoms: _435  and  _438
REMARK  176  A    between atoms: _438  and  _439
REMARK  177  A    between atoms: _445  and  _447
REMARK  178  A    between atoms: _447  and  _448
REMARK  179  A    between atoms: _447  and  _450
REMARK  180  A    between atoms: _450  and  _451
REMARK  181  A    between atoms: _455  and  _456
REMARK  182  A    between atoms: _461  and  _463
REMARK  183  A    between atoms: _463  and  _464
REMARK  184  A    between atoms: _463  and  _466
REMARK  185  A    between atoms: _466  and  _467
REMARK  186  A    between atoms: _472  and  _474
REMARK  187  A    between atoms: _474  and  _475
REMARK  188  A    between atoms: _474  and  _477
REMARK  189  A    between atoms: _477  and  _478
REMARK  190  A    between atoms: _483  and  _485
REMARK  191  A    between atoms: _485  and  _486
REMARK  192  A    between atoms: _485  and  _488
REMARK  193  A    between atoms: _491  and  _493
REMARK  194  A    between atoms: _493  and  _494
REMARK  195  A    between atoms: _493  and  _496
REMARK  196  A    between atoms: _496  and  _497
REMARK  197  A    between atoms: _497  and  _498
REMARK  198  A    between atoms: _498  and  _499
REMARK  199  A    between atoms: _499  and  _500
REMARK  200  A    between atoms: _504  and  _506
REMARK  201  A    between atoms: _506  and  _507
REMARK  202  A    between atoms: _506  and  _509
REMARK  203  A    between atoms: _509  and  _510
REMARK  204  A    between atoms: _513  and  _515
REMARK  205  A    between atoms: _515  and  _516
REMARK  206  A    between atoms: _519  and  _521
REMARK  207  A    between atoms: _521  and  _522
REMARK  208  A    between atoms: _521  and  _524
REMARK  209  A    between atoms: _527  and  _529
REMARK  210  A    between atoms: _529  and  _530
REMARK  211  A    between atoms: _529  and  _532
REMARK  212  A    between atoms: _532  and  _533
REMARK  213  A    between atoms: _536  and  _538
REMARK  214  A    between atoms: _538  and  _539
REMARK  215  A    between atoms: _538  and  _541
REMARK  216  A    between atoms: _541  and  _542
REMARK  217  A    between atoms: _548  and  _550
REMARK  218  A    between atoms: _550  and  _551
REMARK  219  A    between atoms: _550  and  _553
REMARK  220  A    between atoms: _553  and  _554
REMARK  221  A    between atoms: _557  and  _559
REMARK  222  A    between atoms: _559  and  _560
REMARK  223  A    between atoms: _559  and  _562
REMARK  224  A    between atoms: _562  and  _563
REMARK                            x       y       z     vdW  Elec       q    Type
REMARK                         _______ _______ _______ _____ _____    ______ ____
ROOT
ATOM      1  CB  PHE A   1      26.221  58.491  49.346  0.00  0.00    +0.051 C 
ENDROOT
BRANCH   1   2
ATOM      2  CG  PHE A   1      24.742  58.335  49.135  0.00  0.00    -0.020 A 
ATOM      3  CD2 PHE A   1      23.913  57.978  50.186  0.00  0.00    -0.004 A 
ATOM      4  CE2 PHE A   1      22.551  57.836  49.996  0.00  0.00    -0.000 A 
ATOM      5  CZ  PHE A   1      22.003  58.055  48.747  0.00  0.00    -0.000 A 
ATOM      6  CE1 PHE A   1      22.817  58.414  47.692  0.00  0.00    -0.000 A 
ATOM      7  CD1 PHE A   1      24.179  58.555  47.889  0.00  0.00    -0.004 A 
ENDBRANCH   1   2
BRANCH   1   8
ATOM      8  CA  PHE A   1      27.054  57.307  48.832  0.00  0.00    +0.137 C 
BRANCH   8   9
ATOM      9  N   PHE A   1      26.591  56.038  49.408  0.00  0.00    -0.239 NA
ATOM     10  H   PHE A   1      26.304  55.279  48.757  0.00  0.00    +0.142 HD
ENDBRANCH   8   9
BRANCH   8  11
ATOM     11  C   PHE A   1      28.547  57.594  49.035  0.00  0.00    +0.224 C 
ATOM     12  O   PHE A   1      29.059  58.593  48.532  0.00  0.00    -0.287 OA
ENDBRANCH   8  11
ENDBRANCH   1   8
TORSDOF 4
REMARK  Name = ../refined-set-2016/4o2b/4o2b_pocket.pdb
REMARK  224 active torsions:
REMARK  status: ('A' for Active; 'I' for Inactive)
REMARK    1  A    between atoms: _1  and  _3
REMARK    2  A    between atoms: _3  and  _4
REMARK    3  A    between atoms: _3  and  _6
REMARK    4  A    between atoms: _6  and  _7
REMARK    5  A    between atoms: _7  and  _8
REMARK    6  A    between atoms: _13  and  _15
REMARK    7  A    between atoms: _15  and  _16
REMARK    8  A    between atoms: _19  and  _21
REMARK    9  A    between atoms: _21  and  _22
REMARK   10  A    between atoms: _21  and  _24
REMARK   11  A    between atoms: _24  and  _25
REMARK   12  A    between atoms: _31  and  _32
REMARK   13  A    between atoms: _37  and  _39
REMARK   14  A    between atoms: _39  and  _40
REMARK   15  A    between atoms: _39  and  _42
REMARK   16  A    between atoms: _45  and  _47
REMARK   17  A    between atoms: _47  and  _48
REMARK   18  A    between atoms: _47  and  _50
REMARK   19  A    between atoms: _50  and  _51
REMARK   20  A    between atoms: _53  and  _55
REMARK   21  A    between atoms: _55  and  _56
REMARK   22  A    between atoms: _55  and  _58
REMARK   23  A    between atoms: _58  and  _59
REMARK   24  A    between atoms: _62  and  _64
REMARK   25  A    between atoms: _64  and  _65
REMARK   26  A    between atoms: _68  and  _70
REMARK   27  A    between atoms: _70  and  _71
REMARK   28  A    between atoms: _70  and  _73
REMARK   29  A    between atoms: _76  and  _78
REMARK   30  A    between atoms: _78  and  _79
REMARK   31  A    between atoms: _78  and  _81
REMARK   32  A    between atoms: _84  and  _86
REMARK   33  A    between atoms: _86  and  _87
REMARK   34  A    between atoms: _86  and  _89
REMARK   35  A    between atoms: _89  and  _90
REMARK   36  A    between atoms: _90  and  _91
REMARK   37  A    between atoms: _94  and  _96
REMARK   38  A    between atoms: _96  and  _97
REMARK   39  A    between atoms: _96  and  _99
REMARK   40  A    between atoms: _99  and  _100
REMARK   41  A    between atoms: _105  and  _106
REMARK   42  A    between atoms: _108  and  _110
REMARK   43  A    between atoms: _110  and  _111
REMARK   44  A    between atoms: _110  and  _113
REMARK   45  A    between atoms: _113  and  _114
REMARK   46  A    between atoms: _120  and  _122
REMARK   47  A    between atoms: _122  and  _123
REMARK   48  A    between atoms: _122  and  _125
REMARK   49  A    between atoms: _125  and  _126
REMARK   50  A    between atoms: _126  and  _127
REMARK   51  A    between atoms: _127  and  _128
REMARK   52  A    between atoms: _137  and  _139
REMARK   53  A    between atoms: _139  and  _140
REMARK   54  A    between atoms: _139  and  _142
REMARK   55  A    between atoms: _142  and  _143
REMARK   56  A    between atoms: _143  and  _144
REMARK   57  A    between atoms: _149  and  _151
REMARK   58  A    between atoms: _151  and  _152
REMARK   59  A    between atoms: _151  and  _154
REMARK   60  A    between atoms: _154  and  _155
REMARK   61  A    between atoms: _155  and  _156
REMARK   62  A    between atoms: _159  and  _161
REMARK   63  A    between atoms: _161  and  _162
REMARK   64  A    between atoms: _161  and  _164
REMARK   65  A    between atoms: _164  and  _165
REMARK   66  A    between atoms: _170  and  _171
REMARK   67  A    between atoms: _173  and  _175
REMARK   68  A    between atoms: _175  and  _176
REMARK   69  A    between atoms: _178  and  _180
REMARK   70  A    between atoms: _180  and  _181
REMARK   71  A    between atoms: _180  and  _183
REMARK   72  A    between atoms: _186  and  _188
REMARK   73  A    between atoms: _188  and  _189
REMARK   74  A    between atoms: _188  and  _191
REMARK   75  A    between atoms: _191  and  _192
REMARK   76  A    between atoms: _195  and  _197
REMARK   77  A    between atoms: _197  and  _198
REMARK   78  A    between atoms: _197  and  _200
REMARK   79  A    between atoms: _200  and  _201
REMARK   80  A    between atoms: _204  and  _206
REMARK   81  A    between atoms: _206  and  _207
REMARK   82  A    between atoms: _206  and  _209
REMARK   83  A    between atoms: _211  and  _213
REMARK   84  A    between atoms: _213  and  _214
REMARK   85  A    between atoms: _213  and  _216
REMARK   86  A    between atoms: _216  and  _217
REMARK   87  A    between atoms: _220  and  _222
REMARK   88  A    between atoms: _222  and  _223
REMARK   89  A    between atoms: _222  and  _225
REMARK   90  A    between atoms: _225  and  _226
REMARK   91  A    between atoms: _226  and  _227
REMARK   92  A    between atoms: _227  and  _228
REMARK   93  A    between atoms: _237  and  _239
REMARK   94  A    between atoms: _239  and  _240
REMARK   95  A    between atoms: _239  and  _242
REMARK   96  A    between atoms: _242  and  _243
REMARK   97  A    between atoms: _249  and  _251
REMARK   98  A    between atoms: _251  and  _252
REMARK   99  A    between atoms: _251  and  _254
REMARK  100  A    between atoms: _254  and  _255
REMARK  101  A    between atoms: _255  and  _256
REMARK  102  A    between atoms: _261  and  _263
REMARK  103  A    between atoms: _263  and  _264
REMARK  104  A    between atoms: _263  and  _266
REMARK  105  A    between atoms: _266  and  _267
REMARK  106  A    between atoms: _270  and  _272
REMARK  107  A    between atoms: _272  and  _273
REMARK  108  A    between atoms: _272  and  _275
REMARK  109  A    between atoms: _275  and  _276
REMARK  110  A    between atoms: _281  and  _283
REMARK  111  A    between atoms: _283  and  _284
REMARK  112  A    between atoms: _287  and  _289
REMARK  113  A    between atoms: _289  and  _290
REMARK  114  A    between atoms: _289  and  _292
REMARK  115  A    between atoms: _292  and  _293
REMARK  116  A    between atoms: _296  and  _298
REMARK  117  A    between atoms: _298  and  _299
REMARK  118  A    between atoms: _298  and  _301
REMARK  119  A    between atoms: _301  and  _302
REMARK  120  A    between atoms: _305  and  _307
REMARK  121  A    between atoms: _307  and  _308
REMARK  122  A    between atoms: _307  and  _310
REMARK  123  A    between atoms: _310  and  _311
REMARK  124  A    between atoms: _311  and  _312
REMARK  125  A    between atoms: _312  and  _313
REMARK  126  A    between atoms: _322  and  _324
REMARK  127  A    between atoms: _324  and  _325
REMARK  128  A    between atoms: _324  and  _327
REMARK  129  A    between atoms: _327  and  _328
REMARK  130  A    between atoms: _328  and  _329
REMARK  131  A    between atoms: _329  and  _330
REMARK  132  A    between atoms: _330  and  _331
REMARK  133  A    between atoms: _335  and  _337
REMARK  134  A    between atoms: _337  and  _338
REMARK  135  A    between atoms: _337  and  _340
REMARK  136  A    between atoms: _340  and  _341
REMARK  137  A    between atoms: _344  and  _346
REMARK  138  A    between atoms: _346  and  _347
REMARK  139  A    between atoms: _350  and  _352
REMARK  140  A    between atoms: _352  and  _353
REMARK  141  A    between atoms: _352  and  _355
REMARK  142  A    between atoms: _358  and  _360
REMARK  143  A    between atoms: _360  and  _361
REMARK  144  A    between atoms: _360  and  _363
REMARK  145  A    between atoms: _363  and  _364
REMARK  146  A    between atoms: _369  and  _371
REMARK  147  A    between atoms: _371  and  _372
REMARK  148  A    between atoms: _371  and  _374
REMARK  149  A    between atoms: _374  and  _375
REMARK  150  A    between atoms: _375  and  _376
REMARK  151  A    between atoms: _378  and  _380
REMARK  152  A    between atoms: _380  and  _381
REMARK  153  A    between atoms: _380  and  _383
REMARK  154  A    between atoms: _386  and  _388
REMARK  155  A    between atoms: _388  and  _389
REMARK  156  A    between atoms: _388  and  _391
REMARK  157  A    between atoms: _391  and  _392
REMARK  158  A    between atoms: _395  and  _397
REMARK  159  A    between atoms: _397  and  _398
REMARK  160  A    between atoms: _397  and  _400
REMARK  161  A    between atoms: _400  and  _401
REMARK  162  A    between atoms: _404  and  _406
REMARK  163  A    between atoms: _406  and  _407
REMARK  164  A    between atoms: _406  and  _409
REMARK  165  A    between atoms: _412  and  _414
REMARK  166  A    between atoms: _414  and  _415
REMARK  167  A    between atoms: _418  and  _420
REMARK  168  A    between atoms: _420  and  _421
REMARK  169  A    between atoms: _424  and  _426
REMARK  170  A    between atoms: _426  and  _427
REMARK  171  A    between atoms: _426  and  _429
REMARK  172  A    between atoms: _429  and  _430
REMARK  173  A    between atoms: _433  and  _435
REMARK  174  A    between atoms: _435  and  _436
REMARK  175  A    between atoms: _435  and  _438
REMARK  176  A    between atoms: _438  and  _439
REMARK  177  A    between atoms: _445  and  _447
REMARK  178  A    between atoms: _447  and  _448
REMARK  179  A    between atoms: _447  and  _450
REMARK  180  A    between atoms: _450  and  _451
REMARK  181  A    between atoms: _455  and  _456
REMARK  182  A    between atoms: _461  and  _463
REMARK  183  A    between atoms: _463  and  _464
REMARK  184  A    between atoms: _463  and  _466
REMARK  185  A    between atoms: _466  and  _467
REMARK  186  A    between atoms: _472  and  _474
REMARK  187  A    between atoms: _474  and  _475
REMARK  188  A    between atoms: _474  and  _477
REMARK  189  A    between atoms: _477  and  _478
REMARK  190  A    between atoms: _483  and  _485
REMARK  191  A    between atoms: _485  and  _486
REMARK  192  A    between atoms: _485  and  _488
REMARK  193  A    between atoms: _491  and  _493
REMARK  194  A    between atoms: _493  and  _494
REMARK  195  A    between atoms: _493  and  _496
REMARK  196  A    between atoms: _496  and  _497
REMARK  197  A    between atoms: _497  and  _498
REMARK  198  A    between atoms: _498  and  _499
REMARK  199  A    between atoms: _499  and  _500
REMARK  200  A    between atoms: _504  and  _506
REMARK  201  A    between atoms: _506  and  _507
REMARK  202  A    between atoms: _506  and  _509
REMARK  203  A    between atoms: _509  and  _510
REMARK  204  A    between atoms: _513  and  _515
REMARK  205  A    between atoms: _515  and  _516
REMARK  206  A    between atoms: _519  and  _521
REMARK  207  A    between atoms: _521  and  _522
REMARK  208  A    between atoms: _521  and  _524
REMARK  209  A    between atoms: _527  and  _529
REMARK  210  A    between atoms: _529  and  _530
REMARK  211  A    between atoms: _529  and  _532
REMARK  212  A    between atoms: _532  and  _533
REMARK  213  A    between atoms: _536  and  _538
REMARK  214  A    between atoms: _538  and  _539
REMARK  215  A    between atoms: _538  and  _541
REMARK  216  A    between atoms: _541  and  _542
REMARK  217  A    between atoms: _548  and  _550
REMARK  218  A    between atoms: _550  and  _551
REMARK  219  A    between atoms: _550  and  _553
REMARK  220  A    between atoms: _553  and  _554
REMARK  221  A    between atoms: _557  and  _559
REMARK  222  A    between atoms: _559  and  _560
REMARK  223  A    between atoms: _559  and  _562
REMARK  224  A    between atoms: _562  and  _563
REMARK                            x       y       z     vdW  Elec       q    Type
REMARK                         _______ _______ _______ _____ _____    ______ ____
ROOT
ATOM      1  NE  ARG A   1      18.238  76.158  34.512  0.00  0.00    -0.265 N 
ATOM      2  CZ  ARG A   1      18.524  75.529  35.648  0.00  0.00    +0.342 C 
ATOM      3  NH2 ARG A   1      17.547  75.116  36.444  0.00  0.00    -0.292 N 
ATOM      4 HH21 ARG A   1      17.773  74.624  37.332  0.00  0.00    +0.255 HD
ATOM      5 HH22 ARG A   1      16.555  75.284  36.180  0.00  0.00    +0.255 HD
ATOM      6  NH1 ARG A   1      19.788  75.317  35.991  0.00  0.00    -0.292 N 
ATOM      7 HH11 ARG A   1      20.010  74.825  36.880  0.00  0.00    +0.255 HD
ATOM      8 HH12 ARG A   1      20.557  75.643  35.371  0.00  0.00    +0.255 HD
ATOM      9  HE  ARG A   1      19.031  76.469  33.915  0.00  0.00    +0.259 HD
ENDROOT
BRANCH   1  10
ATOM     10  CD  ARG A   1      16.883  76.440  34.050  0.00  0.00    +0.174 C 
BRANCH  10  11
ATOM     11  CG  ARG A   1      16.876  77.372  32.851  0.00  0.00    +0.045 C 
BRANCH  11  12
ATOM     12  CB  ARG A   1      17.244  76.653  31.562  0.00  0.00    +0.029 C 
BRANCH  12  13
ATOM     13  CA  ARG A   1      17.567  77.599  30.401  0.00  0.00    +0.133 C 
BRANCH  13  14
ATOM     14  N   ARG A   1      16.644  78.731  30.388  0.00  0.00    -0.239 NA
ATOM     15  H   ARG A   1      15.637  78.566  30.186  0.00  0.00    +0.142 HD
ENDBRANCH  13  14
BRANCH  13  16
ATOM     16  C   ARG A   1      17.521  76.849  29.070  0.00  0.00    +0.224 C 
ATOM     17  O   ARG A   1      17.720  75.636  29.018  0.00  0.00    -0.287 OA
ENDBRANCH  13  16
ENDBRANCH  12  13
ENDBRANCH  11  12
ENDBRANCH  10  11
ENDBRANCH   1  10
TORSDOF 6
REMARK  Name = ../refined-set-2016/4o2b/4o2b_pocket.pdb
REMARK  224 active torsions:
REMARK  status: ('A' for Active; 'I' for Inactive)
REMARK    1  A    between atoms: _1  and  _3
REMARK    2  A    between atoms: _3  and  _4
REMARK    3  A    between atoms: _3  and  _6
REMARK    4  A    between atoms: _6  and  _7
REMARK    5  A    between atoms: _7  and  _8
REMARK    6  A    between atoms: _13  and  _15
REMARK    7  A    between atoms: _15  and  _16
REMARK    8  A    between atoms: _19  and  _21
REMARK    9  A    between atoms: _21  and  _22
REMARK   10  A    between atoms: _21  and  _24
REMARK   11  A    between atoms: _24  and  _25
REMARK   12  A    between atoms: _31  and  _32
REMARK   13  A    between atoms: _37  and  _39
REMARK   14  A    between atoms: _39  and  _40
REMARK   15  A    between atoms: _39  and  _42
REMARK   16  A    between atoms: _45  and  _47
REMARK   17  A    between atoms: _47  and  _48
REMARK   18  A    between atoms: _47  and  _50
REMARK   19  A    between atoms: _50  and  _51
REMARK   20  A    between atoms: _53  and  _55
REMARK   21  A    between atoms: _55  and  _56
REMARK   22  A    between atoms: _55  and  _58
REMARK   23  A    between atoms: _58  and  _59
REMARK   24  A    between atoms: _62  and  _64
REMARK   25  A    between atoms: _64  and  _65
REMARK   26  A    between atoms: _68  and  _70
REMARK   27  A    between atoms: _70  and  _71
REMARK   28  A    between atoms: _70  and  _73
REMARK   29  A    between atoms: _76  and  _78
REMARK   30  A    between atoms: _78  and  _79
REMARK   31  A    between atoms: _78  and  _81
REMARK   32  A    between atoms: _84  and  _86
REMARK   33  A    between atoms: _86  and  _87
REMARK   34  A    between atoms: _86  and  _89
REMARK   35  A    between atoms: _89  and  _90
REMARK   36  A    between atoms: _90  and  _91
REMARK   37  A    between atoms: _94  and  _96
REMARK   38  A    between atoms: _96  and  _97
REMARK   39  A    between atoms: _96  and  _99
REMARK   40  A    between atoms: _99  and  _100
REMARK   41  A    between atoms: _105  and  _106
REMARK   42  A    between atoms: _108  and  _110
REMARK   43  A    between atoms: _110  and  _111
REMARK   44  A    between atoms: _110  and  _113
REMARK   45  A    between atoms: _113  and  _114
REMARK   46  A    between atoms: _120  and  _122
REMARK   47  A    between atoms: _122  and  _123
REMARK   48  A    between atoms: _122  and  _125
REMARK   49  A    between atoms: _125  and  _126
REMARK   50  A    between atoms: _126  and  _127
REMARK   51  A    between atoms: _127  and  _128
REMARK   52  A    between atoms: _137  and  _139
REMARK   53  A    between atoms: _139  and  _140
REMARK   54  A    between atoms: _139  and  _142
REMARK   55  A    between atoms: _142  and  _143
REMARK   56  A    between atoms: _143  and  _144
REMARK   57  A    between atoms: _149  and  _151
REMARK   58  A    between atoms: _151  and  _152
REMARK   59  A    between atoms: _151  and  _154
REMARK   60  A    between atoms: _154  and  _155
REMARK   61  A    between atoms: _155  and  _156
REMARK   62  A    between atoms: _159  and  _161
REMARK   63  A    between atoms: _161  and  _162
REMARK   64  A    between atoms: _161  and  _164
REMARK   65  A    between atoms: _164  and  _165
REMARK   66  A    between atoms: _170  and  _171
REMARK   67  A    between atoms: _173  and  _175
REMARK   68  A    between atoms: _175  and  _176
REMARK   69  A    between atoms: _178  and  _180
REMARK   70  A    between atoms: _180  and  _181
REMARK   71  A    between atoms: _180  and  _183
REMARK   72  A    between atoms: _186  and  _188
REMARK   73  A    between atoms: _188  and  _189
REMARK   74  A    between atoms: _188  and  _191
REMARK   75  A    between atoms: _191  and  _192
REMARK   76  A    between atoms: _195  and  _197
REMARK   77  A    between atoms: _197  and  _198
REMARK   78  A    between atoms: _197  and  _200
REMARK   79  A    between atoms: _200  and  _201
REMARK   80  A    between atoms: _204  and  _206
REMARK   81  A    between atoms: _206  and  _207
REMARK   82  A    between atoms: _206  and  _209
REMARK   83  A    between atoms: _211  and  _213
REMARK   84  A    between atoms: _213  and  _214
REMARK   85  A    between atoms: _213  and  _216
REMARK   86  A    between atoms: _216  and  _217
REMARK   87  A    between atoms: _220  and  _222
REMARK   88  A    between atoms: _222  and  _223
REMARK   89  A    between atoms: _222  and  _225
REMARK   90  A    between atoms: _225  and  _226
REMARK   91  A    between atoms: _226  and  _227
REMARK   92  A    between atoms: _227  and  _228
REMARK   93  A    between atoms: _237  and  _239
REMARK   94  A    between atoms: _239  and  _240
REMARK   95  A    between atoms: _239  and  _242
REMARK   96  A    between atoms: _242  and  _243
REMARK   97  A    between atoms: _249  and  _251
REMARK   98  A    between atoms: _251  and  _252
REMARK   99  A    between atoms: _251  and  _254
REMARK  100  A    between atoms: _254  and  _255
REMARK  101  A    between atoms: _255  and  _256
REMARK  102  A    between atoms: _261  and  _263
REMARK  103  A    between atoms: _263  and  _264
REMARK  104  A    between atoms: _263  and  _266
REMARK  105  A    between atoms: _266  and  _267
REMARK  106  A    between atoms: _270  and  _272
REMARK  107  A    between atoms: _272  and  _273
REMARK  108  A    between atoms: _272  and  _275
REMARK  109  A    between atoms: _275  and  _276
REMARK  110  A    between atoms: _281  and  _283
REMARK  111  A    between atoms: _283  and  _284
REMARK  112  A    between atoms: _287  and  _289
REMARK  113  A    between atoms: _289  and  _290
REMARK  114  A    between atoms: _289  and  _292
REMARK  115  A    between atoms: _292  and  _293
REMARK  116  A    between atoms: _296  and  _298
REMARK  117  A    between atoms: _298  and  _299
REMARK  118  A    between atoms: _298  and  _301
REMARK  119  A    between atoms: _301  and  _302
REMARK  120  A    between atoms: _305  and  _307
REMARK  121  A    between atoms: _307  and  _308
REMARK  122  A    between atoms: _307  and  _310
REMARK  123  A    between atoms: _310  and  _311
REMARK  124  A    between atoms: _311  and  _312
REMARK  125  A    between atoms: _312  and  _313
REMARK  126  A    between atoms: _322  and  _324
REMARK  127  A    between atoms: _324  and  _325
REMARK  128  A    between atoms: _324  and  _327
REMARK  129  A    between atoms: _327  and  _328
REMARK  130  A    between atoms: _328  and  _329
REMARK  131  A    between atoms: _329  and  _330
REMARK  132  A    between atoms: _330  and  _331
REMARK  133  A    between atoms: _335  and  _337
REMARK  134  A    between atoms: _337  and  _338
REMARK  135  A    between atoms: _337  and  _340
REMARK  136  A    between atoms: _340  and  _341
REMARK  137  A    between atoms: _344  and  _346
REMARK  138  A    between atoms: _346  and  _347
REMARK  139  A    between atoms: _350  and  _352
REMARK  140  A    between atoms: _352  and  _353
REMARK  141  A    between atoms: _352  and  _355
REMARK  142  A    between atoms: _358  and  _360
REMARK  143  A    between atoms: _360  and  _361
REMARK  144  A    between atoms: _360  and  _363
REMARK  145  A    between atoms: _363  and  _364
REMARK  146  A    between atoms: _369  and  _371
REMARK  147  A    between atoms: _371  and  _372
REMARK  148  A    between atoms: _371  and  _374
REMARK  149  A    between atoms: _374  and  _375
REMARK  150  A    between atoms: _375  and  _376
REMARK  151  A    between atoms: _378  and  _380
REMARK  152  A    between atoms: _380  and  _381
REMARK  153  A    between atoms: _380  and  _383
REMARK  154  A    between atoms: _386  and  _388
REMARK  155  A    between atoms: _388  and  _389
REMARK  156  A    between atoms: _388  and  _391
REMARK  157  A    between atoms: _391  and  _392
REMARK  158  A    between atoms: _395  and  _397
REMARK  159  A    between atoms: _397  and  _398
REMARK  160  A    between atoms: _397  and  _400
REMARK  161  A    between atoms: _400  and  _401
REMARK  162  A    between atoms: _404  and  _406
REMARK  163  A    between atoms: _406  and  _407
REMARK  164  A    between atoms: _406  and  _409
REMARK  165  A    between atoms: _412  and  _414
REMARK  166  A    between atoms: _414  and  _415
REMARK  167  A    between atoms: _418  and  _420
REMARK  168  A    between atoms: _420  and  _421
REMARK  169  A    between atoms: _424  and  _426
REMARK  170  A    between atoms: _426  and  _427
REMARK  171  A    between atoms: _426  and  _429
REMARK  172  A    between atoms: _429  and  _430
REMARK  173  A    between atoms: _433  and  _435
REMARK  174  A    between atoms: _435  and  _436
REMARK  175  A    between atoms: _435  and  _438
REMARK  176  A    between atoms: _438  and  _439
REMARK  177  A    between atoms: _445  and  _447
REMARK  178  A    between atoms: _447  and  _448
REMARK  179  A    between atoms: _447  and  _450
REMARK  180  A    between atoms: _450  and  _451
REMARK  181  A    between atoms: _455  and  _456
REMARK  182  A    between atoms: _461  and  _463
REMARK  183  A    between atoms: _463  and  _464
REMARK  184  A    between atoms: _463  and  _466
REMARK  185  A    between atoms: _466  and  _467
REMARK  186  A    between atoms: _472  and  _474
REMARK  187  A    between atoms: _474  and  _475
REMARK  188  A    between atoms: _474  and  _477
REMARK  189  A    between atoms: _477  and  _478
REMARK  190  A    between atoms: _483  and  _485
REMARK  191  A    between atoms: _485  and  _486
REMARK  192  A    between atoms: _485  and  _488
REMARK  193  A    between atoms: _491  and  _493
REMARK  194  A    between atoms: _493  and  _494
REMARK  195  A    between atoms: _493  and  _496
REMARK  196  A    between atoms: _496  and  _497
REMARK  197  A    between atoms: _497  and  _498
REMARK  198  A    between atoms: _498  and  _499
REMARK  199  A    between atoms: _499  and  _500
REMARK  200  A    between atoms: _504  and  _506
REMARK  201  A    between atoms: _506  and  _507
REMARK  202  A    between atoms: _506  and  _509
REMARK  203  A    between atoms: _509  and  _510
REMARK  204  A    between atoms: _513  and  _515
REMARK  205  A    between atoms: _515  and  _516
REMARK  206  A    between atoms: _519  and  _521
REMARK  207  A    between atoms: _521  and  _522
REMARK  208  A    between atoms: _521  and  _524
REMARK  209  A    between atoms: _527  and  _529
REMARK  210  A    between atoms: _529  and  _530
REMARK  211  A    between atoms: _529  and  _532
REMARK  212  A    between atoms: _532  and  _533
REMARK  213  A    between atoms: _536  and  _538
REMARK  214  A    between atoms: _538  and  _539
REMARK  215  A    between atoms: _538  and  _541
REMARK  216  A    between atoms: _541  and  _542
REMARK  217  A    between atoms: _548  and  _550
REMARK  218  A    between atoms: _550  and  _551
REMARK  219  A    between atoms: _550  and  _553
REMARK  220  A    between atoms: _553  and  _554
REMARK  221  A    between atoms: _557  and  _559
REMARK  222  A    between atoms: _559  and  _560
REMARK  223  A    between atoms: _559  and  _562
REMARK  224  A    between atoms: _562  and  _563
REMARK                            x       y       z     vdW  Elec       q    Type
REMARK                         _______ _______ _______ _____ _____    ______ ____
ROOT
ATOM      1  CB  GLN A   1      25.870  69.555  32.264  0.00  0.00    +0.035 C 
ENDROOT
BRANCH   1   2
ATOM      2  CA  GLN A   1      27.342  69.187  32.084  0.00  0.00    +0.134 C 
BRANCH   2   3
ATOM      3  N   GLN A   1      27.873  69.850  30.904  0.00  0.00    -0.239 NA
ATOM      4  H   GLN A   1      27.214  70.165  30.164  0.00  0.00    +0.142 HD
ENDBRANCH   2   3
BRANCH   2   5
ATOM      5  C   GLN A   1      27.501  67.673  31.967  0.00  0.00    +0.224 C 
ATOM      6  O   GLN A   1      28.006  67.018  32.881  0.00  0.00    -0.287 OA
ENDBRANCH   2   5
ENDBRANCH   1   2
BRANCH   1   7
ATOM      7  CG  GLN A   1      25.177  68.859  33.415  0.00  0.00    +0.087 C 
BRANCH   7   8
ATOM      8  CD  GLN A   1      23.702  69.200  33.483  0.00  0.00    +0.219 C 
ATOM      9  OE1 GLN A   1      22.949  68.598  34.244  0.00  0.00    -0.275 OA
ATOM     10  NE2 GLN A   1      23.281  70.171  32.681  0.00  0.00    -0.329 N 
ATOM     11 HE21 GLN A   1      22.279  70.448  32.682  0.00  0.00    +0.145 HD
ATOM     12 HE22 GLN A   1      23.954  70.654  32.052  0.00  0.00    +0.145 HD
ENDBRANCH   7   8
ENDBRANCH   1   7
TORSDOF 5
REMARK  Name = ../refined-set-2016/4o2b/4o2b_pocket.pdb
REMARK  224 active torsions:
REMARK  status: ('A' for Active; 'I' for Inactive)
REMARK    1  A    between atoms: _1  and  _3
REMARK    2  A    between atoms: _3  and  _4
REMARK    3  A    between atoms: _3  and  _6
REMARK    4  A    between atoms: _6  and  _7
REMARK    5  A    between atoms: _7  and  _8
REMARK    6  A    between atoms: _13  and  _15
REMARK    7  A    between atoms: _15  and  _16
REMARK    8  A    between atoms: _19  and  _21
REMARK    9  A    between atoms: _21  and  _22
REMARK   10  A    between atoms: _21  and  _24
REMARK   11  A    between atoms: _24  and  _25
REMARK   12  A    between atoms: _31  and  _32
REMARK   13  A    between atoms: _37  and  _39
REMARK   14  A    between atoms: _39  and  _40
REMARK   15  A    between atoms: _39  and  _42
REMARK   16  A    between atoms: _45  and  _47
REMARK   17  A    between atoms: _47  and  _48
REMARK   18  A    between atoms: _47  and  _50
REMARK   19  A    between atoms: _50  and  _51
REMARK   20  A    between atoms: _53  and  _55
REMARK   21  A    between atoms: _55  and  _56
REMARK   22  A    between atoms: _55  and  _58
REMARK   23  A    between atoms: _58  and  _59
REMARK   24  A    between atoms: _62  and  _64
REMARK   25  A    between atoms: _64  and  _65
REMARK   26  A    between atoms: _68  and  _70
REMARK   27  A    between atoms: _70  and  _71
REMARK   28  A    between atoms: _70  and  _73
REMARK   29  A    between atoms: _76  and  _78
REMARK   30  A    between atoms: _78  and  _79
REMARK   31  A    between atoms: _78  and  _81
REMARK   32  A    between atoms: _84  and  _86
REMARK   33  A    between atoms: _86  and  _87
REMARK   34  A    between atoms: _86  and  _89
REMARK   35  A    between atoms: _89  and  _90
REMARK   36  A    between atoms: _90  and  _91
REMARK   37  A    between atoms: _94  and  _96
REMARK   38  A    between atoms: _96  and  _97
REMARK   39  A    between atoms: _96  and  _99
REMARK   40  A    between atoms: _99  and  _100
REMARK   41  A    between atoms: _105  and  _106
REMARK   42  A    between atoms: _108  and  _110
REMARK   43  A    between atoms: _110  and  _111
REMARK   44  A    between atoms: _110  and  _113
REMARK   45  A    between atoms: _113  and  _114
REMARK   46  A    between atoms: _120  and  _122
REMARK   47  A    between atoms: _122  and  _123
REMARK   48  A    between atoms: _122  and  _125
REMARK   49  A    between atoms: _125  and  _126
REMARK   50  A    between atoms: _126  and  _127
REMARK   51  A    between atoms: _127  and  _128
REMARK   52  A    between atoms: _137  and  _139
REMARK   53  A    between atoms: _139  and  _140
REMARK   54  A    between atoms: _139  and  _142
REMARK   55  A    between atoms: _142  and  _143
REMARK   56  A    between atoms: _143  and  _144
REMARK   57  A    between atoms: _149  and  _151
REMARK   58  A    between atoms: _151  and  _152
REMARK   59  A    between atoms: _151  and  _154
REMARK   60  A    between atoms: _154  and  _155
REMARK   61  A    between atoms: _155  and  _156
REMARK   62  A    between atoms: _159  and  _161
REMARK   63  A    between atoms: _161  and  _162
REMARK   64  A    between atoms: _161  and  _164
REMARK   65  A    between atoms: _164  and  _165
REMARK   66  A    between atoms: _170  and  _171
REMARK   67  A    between atoms: _173  and  _175
REMARK   68  A    between atoms: _175  and  _176
REMARK   69  A    between atoms: _178  and  _180
REMARK   70  A    between atoms: _180  and  _181
REMARK   71  A    between atoms: _180  and  _183
REMARK   72  A    between atoms: _186  and  _188
REMARK   73  A    between atoms: _188  and  _189
REMARK   74  A    between atoms: _188  and  _191
REMARK   75  A    between atoms: _191  and  _192
REMARK   76  A    between atoms: _195  and  _197
REMARK   77  A    between atoms: _197  and  _198
REMARK   78  A    between atoms: _197  and  _200
REMARK   79  A    between atoms: _200  and  _201
REMARK   80  A    between atoms: _204  and  _206
REMARK   81  A    between atoms: _206  and  _207
REMARK   82  A    between atoms: _206  and  _209
REMARK   83  A    between atoms: _211  and  _213
REMARK   84  A    between atoms: _213  and  _214
REMARK   85  A    between atoms: _213  and  _216
REMARK   86  A    between atoms: _216  and  _217
REMARK   87  A    between atoms: _220  and  _222
REMARK   88  A    between atoms: _222  and  _223
REMARK   89  A    between atoms: _222  and  _225
REMARK   90  A    between atoms: _225  and  _226
REMARK   91  A    between atoms: _226  and  _227
REMARK   92  A    between atoms: _227  and  _228
REMARK   93  A    between atoms: _237  and  _239
REMARK   94  A    between atoms: _239  and  _240
REMARK   95  A    between atoms: _239  and  _242
REMARK   96  A    between atoms: _242  and  _243
REMARK   97  A    between atoms: _249  and  _251
REMARK   98  A    between atoms: _251  and  _252
REMARK   99  A    between atoms: _251  and  _254
REMARK  100  A    between atoms: _254  and  _255
REMARK  101  A    between atoms: _255  and  _256
REMARK  102  A    between atoms: _261  and  _263
REMARK  103  A    between atoms: _263  and  _264
REMARK  104  A    between atoms: _263  and  _266
REMARK  105  A    between atoms: _266  and  _267
REMARK  106  A    between atoms: _270  and  _272
REMARK  107  A    between atoms: _272  and  _273
REMARK  108  A    between atoms: _272  and  _275
REMARK  109  A    between atoms: _275  and  _276
REMARK  110  A    between atoms: _281  and  _283
REMARK  111  A    between atoms: _283  and  _284
REMARK  112  A    between atoms: _287  and  _289
REMARK  113  A    between atoms: _289  and  _290
REMARK  114  A    between atoms: _289  and  _292
REMARK  115  A    between atoms: _292  and  _293
REMARK  116  A    between atoms: _296  and  _298
REMARK  117  A    between atoms: _298  and  _299
REMARK  118  A    between atoms: _298  and  _301
REMARK  119  A    between atoms: _301  and  _302
REMARK  120  A    between atoms: _305  and  _307
REMARK  121  A    between atoms: _307  and  _308
REMARK  122  A    between atoms: _307  and  _310
REMARK  123  A    between atoms: _310  and  _311
REMARK  124  A    between atoms: _311  and  _312
REMARK  125  A    between atoms: _312  and  _313
REMARK  126  A    between atoms: _322  and  _324
REMARK  127  A    between atoms: _324  and  _325
REMARK  128  A    between atoms: _324  and  _327
REMARK  129  A    between atoms: _327  and  _328
REMARK  130  A    between atoms: _328  and  _329
REMARK  131  A    between atoms: _329  and  _330
REMARK  132  A    between atoms: _330  and  _331
REMARK  133  A    between atoms: _335  and  _337
REMARK  134  A    between atoms: _337  and  _338
REMARK  135  A    between atoms: _337  and  _340
REMARK  136  A    between atoms: _340  and  _341
REMARK  137  A    between atoms: _344  and  _346
REMARK  138  A    between atoms: _346  and  _347
REMARK  139  A    between atoms: _350  and  _352
REMARK  140  A    between atoms: _352  and  _353
REMARK  141  A    between atoms: _352  and  _355
REMARK  142  A    between atoms: _358  and  _360
REMARK  143  A    between atoms: _360  and  _361
REMARK  144  A    between atoms: _360  and  _363
REMARK  145  A    between atoms: _363  and  _364
REMARK  146  A    between atoms: _369  and  _371
REMARK  147  A    between atoms: _371  and  _372
REMARK  148  A    between atoms: _371  and  _374
REMARK  149  A    between atoms: _374  and  _375
REMARK  150  A    between atoms: _375  and  _376
REMARK  151  A    between atoms: _378  and  _380
REMARK  152  A    between atoms: _380  and  _381
REMARK  153  A    between atoms: _380  and  _383
REMARK  154  A    between atoms: _386  and  _388
REMARK  155  A    between atoms: _388  and  _389
REMARK  156  A    between atoms: _388  and  _391
REMARK  157  A    between atoms: _391  and  _392
REMARK  158  A    between atoms: _395  and  _397
REMARK  159  A    between atoms: _397  and  _398
REMARK  160  A    between atoms: _397  and  _400
REMARK  161  A    between atoms: _400  and  _401
REMARK  162  A    between atoms: _404  and  _406
REMARK  163  A    between atoms: _406  and  _407
REMARK  164  A    between atoms: _406  and  _409
REMARK  165  A    between atoms: _412  and  _414
REMARK  166  A    between atoms: _414  and  _415
REMARK  167  A    between atoms: _418  and  _420
REMARK  168  A    between atoms: _420  and  _421
REMARK  169  A    between atoms: _424  and  _426
REMARK  170  A    between atoms: _426  and  _427
REMARK  171  A    between atoms: _426  and  _429
REMARK  172  A    between atoms: _429  and  _430
REMARK  173  A    between atoms: _433  and  _435
REMARK  174  A    between atoms: _435  and  _436
REMARK  175  A    between atoms: _435  and  _438
REMARK  176  A    between atoms: _438  and  _439
REMARK  177  A    between atoms: _445  and  _447
REMARK  178  A    between atoms: _447  and  _448
REMARK  179  A    between atoms: _447  and  _450
REMARK  180  A    between atoms: _450  and  _451
REMARK  181  A    between atoms: _455  and  _456
REMARK  182  A    between atoms: _461  and  _463
REMARK  183  A    between atoms: _463  and  _464
REMARK  184  A    between atoms: _463  and  _466
REMARK  185  A    between atoms: _466  and  _467
REMARK  186  A    between atoms: _472  and  _474
REMARK  187  A    between atoms: _474  and  _475
REMARK  188  A    between atoms: _474  and  _477
REMARK  189  A    between atoms: _477  and  _478
REMARK  190  A    between atoms: _483  and  _485
REMARK  191  A    between atoms: _485  and  _486
REMARK  192  A    between atoms: _485  and  _488
REMARK  193  A    between atoms: _491  and  _493
REMARK  194  A    between atoms: _493  and  _494
REMARK  195  A    between atoms: _493  and  _496
REMARK  196  A    between atoms: _496  and  _497
REMARK  197  A    between atoms: _497  and  _498
REMARK  198  A    between atoms: _498  and  _499
REMARK  199  A    between atoms: _499  and  _500
REMARK  200  A    between atoms: _504  and  _506
REMARK  201  A    between atoms: _506  and  _507
REMARK  202  A    between atoms: _506  and  _509
REMARK  203  A    between atoms: _509  and  _510
REMARK  204  A    between atoms: _513  and  _515
REMARK  205  A    between atoms: _515  and  _516
REMARK  206  A    between atoms: _519  and  _521
REMARK  207  A    between atoms: _521  and  _522
REMARK  208  A    between atoms: _521  and  _524
REMARK  209  A    between atoms: _527  and  _529
REMARK  210  A    between atoms: _529  and  _530
REMARK  211  A    between atoms: _529  and  _532
REMARK  212  A    between atoms: _532  and  _533
REMARK  213  A    between atoms: _536  and  _538
REMARK  214  A    between atoms: _538  and  _539
REMARK  215  A    between atoms: _538  and  _541
REMARK  216  A    between atoms: _541  and  _542
REMARK  217  A    between atoms: _548  and  _550
REMARK  218  A    between atoms: _550  and  _551
REMARK  219  A    between atoms: _550  and  _553
REMARK  220  A    between atoms: _553  and  _554
REMARK  221  A    between atoms: _557  and  _559
REMARK  222  A    between atoms: _559  and  _560
REMARK  223  A    between atoms: _559  and  _562
REMARK  224  A    between atoms: _562  and  _563
REMARK                            x       y       z     vdW  Elec       q    Type
REMARK                         _______ _______ _______ _____ _____    ______ ____
ROOT
ATOM      1  CA  GLU A   1      22.180  57.200  35.335  0.00  0.00    +0.134 C 
ENDROOT
BRANCH   1   2
ATOM      2  N   GLU A   1      23.629  57.245  35.198  0.00  0.00    -0.239 NA
ATOM      3  H   GLU A   1      24.040  57.380  34.252  0.00  0.00    +0.142 HD
ENDBRANCH   1   2
BRANCH   1   4
ATOM      4  C   GLU A   1      21.572  56.517  34.119  0.00  0.00    +0.224 C 
ATOM      5  O   GLU A   1      21.790  56.948  32.984  0.00  0.00    -0.287 OA
ENDBRANCH   1   4
BRANCH   1   6
ATOM      6  CB  GLU A   1      21.606  58.615  35.457  0.00  0.00    +0.037 C 
BRANCH   6   7
ATOM      7  CG  GLU A   1      22.006  59.366  36.715  0.00  0.00    +0.116 C 
BRANCH   7   8
ATOM      8  CD  GLU A   1      22.053  60.866  36.499  0.00  0.00    +0.365 C 
ATOM      9  OE2 GLU A   1      21.907  61.617  37.484  0.00  0.00    -0.246 OA
ATOM     10  OE1 GLU A   1      22.235  61.296  35.340  0.00  0.00    -0.246 OA
ENDBRANCH   7   8
ENDBRANCH   6   7
ENDBRANCH   1   6
TORSDOF 5
REMARK  Name = ../refined-set-2016/4o2b/4o2b_pocket.pdb
REMARK  224 active torsions:
REMARK  status: ('A' for Active; 'I' for Inactive)
REMARK    1  A    between atoms: _1  and  _3
REMARK    2  A    between atoms: _3  and  _4
REMARK    3  A    between atoms: _3  and  _6
REMARK    4  A    between atoms: _6  and  _7
REMARK    5  A    between atoms: _7  and  _8
REMARK    6  A    between atoms: _13  and  _15
REMARK    7  A    between atoms: _15  and  _16
REMARK    8  A    between atoms: _19  and  _21
REMARK    9  A    between atoms: _21  and  _22
REMARK   10  A    between atoms: _21  and  _24
REMARK   11  A    between atoms: _24  and  _25
REMARK   12  A    between atoms: _31  and  _32
REMARK   13  A    between atoms: _37  and  _39
REMARK   14  A    between atoms: _39  and  _40
REMARK   15  A    between atoms: _39  and  _42
REMARK   16  A    between atoms: _45  and  _47
REMARK   17  A    between atoms: _47  and  _48
REMARK   18  A    between atoms: _47  and  _50
REMARK   19  A    between atoms: _50  and  _51
REMARK   20  A    between atoms: _53  and  _55
REMARK   21  A    between atoms: _55  and  _56
REMARK   22  A    between atoms: _55  and  _58
REMARK   23  A    between atoms: _58  and  _59
REMARK   24  A    between atoms: _62  and  _64
REMARK   25  A    between atoms: _64  and  _65
REMARK   26  A    between atoms: _68  and  _70
REMARK   27  A    between atoms: _70  and  _71
REMARK   28  A    between atoms: _70  and  _73
REMARK   29  A    between atoms: _76  and  _78
REMARK   30  A    between atoms: _78  and  _79
REMARK   31  A    between atoms: _78  and  _81
REMARK   32  A    between atoms: _84  and  _86
REMARK   33  A    between atoms: _86  and  _87
REMARK   34  A    between atoms: _86  and  _89
REMARK   35  A    between atoms: _89  and  _90
REMARK   36  A    between atoms: _90  and  _91
REMARK   37  A    between atoms: _94  and  _96
REMARK   38  A    between atoms: _96  and  _97
REMARK   39  A    between atoms: _96  and  _99
REMARK   40  A    between atoms: _99  and  _100
REMARK   41  A    between atoms: _105  and  _106
REMARK   42  A    between atoms: _108  and  _110
REMARK   43  A    between atoms: _110  and  _111
REMARK   44  A    between atoms: _110  and  _113
REMARK   45  A    between atoms: _113  and  _114
REMARK   46  A    between atoms: _120  and  _122
REMARK   47  A    between atoms: _122  and  _123
REMARK   48  A    between atoms: _122  and  _125
REMARK   49  A    between atoms: _125  and  _126
REMARK   50  A    between atoms: _126  and  _127
REMARK   51  A    between atoms: _127  and  _128
REMARK   52  A    between atoms: _137  and  _139
REMARK   53  A    between atoms: _139  and  _140
REMARK   54  A    between atoms: _139  and  _142
REMARK   55  A    between atoms: _142  and  _143
REMARK   56  A    between atoms: _143  and  _144
REMARK   57  A    between atoms: _149  and  _151
REMARK   58  A    between atoms: _151  and  _152
REMARK   59  A    between atoms: _151  and  _154
REMARK   60  A    between atoms: _154  and  _155
REMARK   61  A    between atoms: _155  and  _156
REMARK   62  A    between atoms: _159  and  _161
REMARK   63  A    between atoms: _161  and  _162
REMARK   64  A    between atoms: _161  and  _164
REMARK   65  A    between atoms: _164  and  _165
REMARK   66  A    between atoms: _170  and  _171
REMARK   67  A    between atoms: _173  and  _175
REMARK   68  A    between atoms: _175  and  _176
REMARK   69  A    between atoms: _178  and  _180
REMARK   70  A    between atoms: _180  and  _181
REMARK   71  A    between atoms: _180  and  _183
REMARK   72  A    between atoms: _186  and  _188
REMARK   73  A    between atoms: _188  and  _189
REMARK   74  A    between atoms: _188  and  _191
REMARK   75  A    between atoms: _191  and  _192
REMARK   76  A    between atoms: _195  and  _197
REMARK   77  A    between atoms: _197  and  _198
REMARK   78  A    between atoms: _197  and  _200
REMARK   79  A    between atoms: _200  and  _201
REMARK   80  A    between atoms: _204  and  _206
REMARK   81  A    between atoms: _206  and  _207
REMARK   82  A    between atoms: _206  and  _209
REMARK   83  A    between atoms: _211  and  _213
REMARK   84  A    between atoms: _213  and  _214
REMARK   85  A    between atoms: _213  and  _216
REMARK   86  A    between atoms: _216  and  _217
REMARK   87  A    between atoms: _220  and  _222
REMARK   88  A    between atoms: _222  and  _223
REMARK   89  A    between atoms: _222  and  _225
REMARK   90  A    between atoms: _225  and  _226
REMARK   91  A    between atoms: _226  and  _227
REMARK   92  A    between atoms: _227  and  _228
REMARK   93  A    between atoms: _237  and  _239
REMARK   94  A    between atoms: _239  and  _240
REMARK   95  A    between atoms: _239  and  _242
REMARK   96  A    between atoms: _242  and  _243
REMARK   97  A    between atoms: _249  and  _251
REMARK   98  A    between atoms: _251  and  _252
REMARK   99  A    between atoms: _251  and  _254
REMARK  100  A    between atoms: _254  and  _255
REMARK  101  A    between atoms: _255  and  _256
REMARK  102  A    between atoms: _261  and  _263
REMARK  103  A    between atoms: _263  and  _264
REMARK  104  A    between atoms: _263  and  _266
REMARK  105  A    between atoms: _266  and  _267
REMARK  106  A    between atoms: _270  and  _272
REMARK  107  A    between atoms: _272  and  _273
REMARK  108  A    between atoms: _272  and  _275
REMARK  109  A    between atoms: _275  and  _276
REMARK  110  A    between atoms: _281  and  _283
REMARK  111  A    between atoms: _283  and  _284
REMARK  112  A    between atoms: _287  and  _289
REMARK  113  A    between atoms: _289  and  _290
REMARK  114  A    between atoms: _289  and  _292
REMARK  115  A    between atoms: _292  and  _293
REMARK  116  A    between atoms: _296  and  _298
REMARK  117  A    between atoms: _298  and  _299
REMARK  118  A    between atoms: _298  and  _301
REMARK  119  A    between atoms: _301  and  _302
REMARK  120  A    between atoms: _305  and  _307
REMARK  121  A    between atoms: _307  and  _308
REMARK  122  A    between atoms: _307  and  _310
REMARK  123  A    between atoms: _310  and  _311
REMARK  124  A    between atoms: _311  and  _312
REMARK  125  A    between atoms: _312  and  _313
REMARK  126  A    between atoms: _322  and  _324
REMARK  127  A    between atoms: _324  and  _325
REMARK  128  A    between atoms: _324  and  _327
REMARK  129  A    between atoms: _327  and  _328
REMARK  130  A    between atoms: _328  and  _329
REMARK  131  A    between atoms: _329  and  _330
REMARK  132  A    between atoms: _330  and  _331
REMARK  133  A    between atoms: _335  and  _337
REMARK  134  A    between atoms: _337  and  _338
REMARK  135  A    between atoms: _337  and  _340
REMARK  136  A    between atoms: _340  and  _341
REMARK  137  A    between atoms: _344  and  _346
REMARK  138  A    between atoms: _346  and  _347
REMARK  139  A    between atoms: _350  and  _352
REMARK  140  A    between atoms: _352  and  _353
REMARK  141  A    between atoms: _352  and  _355
REMARK  142  A    between atoms: _358  and  _360
REMARK  143  A    between atoms: _360  and  _361
REMARK  144  A    between atoms: _360  and  _363
REMARK  145  A    between atoms: _363  and  _364
REMARK  146  A    between atoms: _369  and  _371
REMARK  147  A    between atoms: _371  and  _372
REMARK  148  A    between atoms: _371  and  _374
REMARK  149  A    between atoms: _374  and  _375
REMARK  150  A    between atoms: _375  and  _376
REMARK  151  A    between atoms: _378  and  _380
REMARK  152  A    between atoms: _380  and  _381
REMARK  153  A    between atoms: _380  and  _383
REMARK  154  A    between atoms: _386  and  _388
REMARK  155  A    between atoms: _388  and  _389
REMARK  156  A    between atoms: _388  and  _391
REMARK  157  A    between atoms: _391  and  _392
REMARK  158  A    between atoms: _395  and  _397
REMARK  159  A    between atoms: _397  and  _398
REMARK  160  A    between atoms: _397  and  _400
REMARK  161  A    between atoms: _400  and  _401
REMARK  162  A    between atoms: _404  and  _406
REMARK  163  A    between atoms: _406  and  _407
REMARK  164  A    between atoms: _406  and  _409
REMARK  165  A    between atoms: _412  and  _414
REMARK  166  A    between atoms: _414  and  _415
REMARK  167  A    between atoms: _418  and  _420
REMARK  168  A    between atoms: _420  and  _421
REMARK  169  A    between atoms: _424  and  _426
REMARK  170  A    between atoms: _426  and  _427
REMARK  171  A    between atoms: _426  and  _429
REMARK  172  A    between atoms: _429  and  _430
REMARK  173  A    between atoms: _433  and  _435
REMARK  174  A    between atoms: _435  and  _436
REMARK  175  A    between atoms: _435  and  _438
REMARK  176  A    between atoms: _438  and  _439
REMARK  177  A    between atoms: _445  and  _447
REMARK  178  A    between atoms: _447  and  _448
REMARK  179  A    between atoms: _447  and  _450
REMARK  180  A    between atoms: _450  and  _451
REMARK  181  A    between atoms: _455  and  _456
REMARK  182  A    between atoms: _461  and  _463
REMARK  183  A    between atoms: _463  and  _464
REMARK  184  A    between atoms: _463  and  _466
REMARK  185  A    between atoms: _466  and  _467
REMARK  186  A    between atoms: _472  and  _474
REMARK  187  A    between atoms: _474  and  _475
REMARK  188  A    between atoms: _474  and  _477
REMARK  189  A    between atoms: _477  and  _478
REMARK  190  A    between atoms: _483  and  _485
REMARK  191  A    between atoms: _485  and  _486
REMARK  192  A    between atoms: _485  and  _488
REMARK  193  A    between atoms: _491  and  _493
REMARK  194  A    between atoms: _493  and  _494
REMARK  195  A    between atoms: _493  and  _496
REMARK  196  A    between atoms: _496  and  _497
REMARK  197  A    between atoms: _497  and  _498
REMARK  198  A    between atoms: _498  and  _499
REMARK  199  A    between atoms: _499  and  _500
REMARK  200  A    between atoms: _504  and  _506
REMARK  201  A    between atoms: _506  and  _507
REMARK  202  A    between atoms: _506  and  _509
REMARK  203  A    between atoms: _509  and  _510
REMARK  204  A    between atoms: _513  and  _515
REMARK  205  A    between atoms: _515  and  _516
REMARK  206  A    between atoms: _519  and  _521
REMARK  207  A    between atoms: _521  and  _522
REMARK  208  A    between atoms: _521  and  _524
REMARK  209  A    between atoms: _527  and  _529
REMARK  210  A    between atoms: _529  and  _530
REMARK  211  A    between atoms: _529  and  _532
REMARK  212  A    between atoms: _532  and  _533
REMARK  213  A    between atoms: _536  and  _538
REMARK  214  A    between atoms: _538  and  _539
REMARK  215  A    between atoms: _538  and  _541
REMARK  216  A    between atoms: _541  and  _542
REMARK  217  A    between atoms: _548  and  _550
REMARK  218  A    between atoms: _550  and  _551
REMARK  219  A    between atoms: _550  and  _553
REMARK  220  A    between atoms: _553  and  _554
REMARK  221  A    between atoms: _557  and  _559
REMARK  222  A    between atoms: _559  and  _560
REMARK  223  A    between atoms: _559  and  _562
REMARK  224  A    between atoms: _562  and  _563
REMARK                            x       y       z     vdW  Elec       q    Type
REMARK                         _______ _______ _______ _____ _____    ______ ____
ROOT
ATOM      1  CG  TYR A   1      15.902  57.589  33.172  0.00  0.00    -0.020 A 
ATOM      2  CD2 TYR A   1      15.165  57.938  34.295  0.00  0.00    -0.001 A 
ATOM      3  CE2 TYR A   1      15.445  59.092  35.005  0.00  0.00    +0.036 A 
ATOM      4  CZ  TYR A   1      16.473  59.912  34.592  0.00  0.00    +0.134 A 
ATOM      5  CE1 TYR A   1      17.220  59.587  33.478  0.00  0.00    +0.036 A 
ATOM      6  CD1 TYR A   1      16.933  58.432  32.777  0.00  0.00    -0.001 A 
ENDROOT
BRANCH   4   7
ATOM      7  OH  TYR A   1      16.753  61.062  35.294  0.00  0.00    -0.506 OA
ATOM      8  HH  TYR A   1      16.128  61.142  36.057  0.00  0.00    +0.292 HD
ENDBRANCH   4   7
BRANCH   1   9
ATOM      9  CB  TYR A   1      15.593  56.324  32.405  0.00  0.00    +0.051 C 
BRANCH   9  10
ATOM     10  CA  TYR A   1      16.331  55.096  32.940  0.00  0.00    +0.137 C 
BRANCH  10  11
ATOM     11  N   TYR A   1      17.769  55.267  32.809  0.00  0.00    -0.239 NA
ATOM     12  H   TYR A   1      18.142  55.892  32.066  0.00  0.00    +0.142 HD
ENDBRANCH  10  11
BRANCH  10  13
ATOM     13  C   TYR A   1      15.910  53.842  32.184  0.00  0.00    +0.224 C 
ATOM     14  O   TYR A   1      16.032  53.778  30.956  0.00  0.00    -0.287 OA
ENDBRANCH  10  13
ENDBRANCH   9  10
ENDBRANCH   1   9
TORSDOF 5
REMARK  Name = ../refined-set-2016/4o2b/4o2b_pocket.pdb
REMARK  224 active torsions:
REMARK  status: ('A' for Active; 'I' for Inactive)
REMARK    1  A    between atoms: _1  and  _3
REMARK    2  A    between atoms: _3  and  _4
REMARK    3  A    between atoms: _3  and  _6
REMARK    4  A    between atoms: _6  and  _7
REMARK    5  A    between atoms: _7  and  _8
REMARK    6  A    between atoms: _13  and  _15
REMARK    7  A    between atoms: _15  and  _16
REMARK    8  A    between atoms: _19  and  _21
REMARK    9  A    between atoms: _21  and  _22
REMARK   10  A    between atoms: _21  and  _24
REMARK   11  A    between atoms: _24  and  _25
REMARK   12  A    between atoms: _31  and  _32
REMARK   13  A    between atoms: _37  and  _39
REMARK   14  A    between atoms: _39  and  _40
REMARK   15  A    between atoms: _39  and  _42
REMARK   16  A    between atoms: _45  and  _47
REMARK   17  A    between atoms: _47  and  _48
REMARK   18  A    between atoms: _47  and  _50
REMARK   19  A    between atoms: _50  and  _51
REMARK   20  A    between atoms: _53  and  _55
REMARK   21  A    between atoms: _55  and  _56
REMARK   22  A    between atoms: _55  and  _58
REMARK   23  A    between atoms: _58  and  _59
REMARK   24  A    between atoms: _62  and  _64
REMARK   25  A    between atoms: _64  and  _65
REMARK   26  A    between atoms: _68  and  _70
REMARK   27  A    between atoms: _70  and  _71
REMARK   28  A    between atoms: _70  and  _73
REMARK   29  A    between atoms: _76  and  _78
REMARK   30  A    between atoms: _78  and  _79
REMARK   31  A    between atoms: _78  and  _81
REMARK   32  A    between atoms: _84  and  _86
REMARK   33  A    between atoms: _86  and  _87
REMARK   34  A    between atoms: _86  and  _89
REMARK   35  A    between atoms: _89  and  _90
REMARK   36  A    between atoms: _90  and  _91
REMARK   37  A    between atoms: _94  and  _96
REMARK   38  A    between atoms: _96  and  _97
REMARK   39  A    between atoms: _96  and  _99
REMARK   40  A    between atoms: _99  and  _100
REMARK   41  A    between atoms: _105  and  _106
REMARK   42  A    between atoms: _108  and  _110
REMARK   43  A    between atoms: _110  and  _111
REMARK   44  A    between atoms: _110  and  _113
REMARK   45  A    between atoms: _113  and  _114
REMARK   46  A    between atoms: _120  and  _122
REMARK   47  A    between atoms: _122  and  _123
REMARK   48  A    between atoms: _122  and  _125
REMARK   49  A    between atoms: _125  and  _126
REMARK   50  A    between atoms: _126  and  _127
REMARK   51  A    between atoms: _127  and  _128
REMARK   52  A    between atoms: _137  and  _139
REMARK   53  A    between atoms: _139  and  _140
REMARK   54  A    between atoms: _139  and  _142
REMARK   55  A    between atoms: _142  and  _143
REMARK   56  A    between atoms: _143  and  _144
REMARK   57  A    between atoms: _149  and  _151
REMARK   58  A    between atoms: _151  and  _152
REMARK   59  A    between atoms: _151  and  _154
REMARK   60  A    between atoms: _154  and  _155
REMARK   61  A    between atoms: _155  and  _156
REMARK   62  A    between atoms: _159  and  _161
REMARK   63  A    between atoms: _161  and  _162
REMARK   64  A    between atoms: _161  and  _164
REMARK   65  A    between atoms: _164  and  _165
REMARK   66  A    between atoms: _170  and  _171
REMARK   67  A    between atoms: _173  and  _175
REMARK   68  A    between atoms: _175  and  _176
REMARK   69  A    between atoms: _178  and  _180
REMARK   70  A    between atoms: _180  and  _181
REMARK   71  A    between atoms: _180  and  _183
REMARK   72  A    between atoms: _186  and  _188
REMARK   73  A    between atoms: _188  and  _189
REMARK   74  A    between atoms: _188  and  _191
REMARK   75  A    between atoms: _191  and  _192
REMARK   76  A    between atoms: _195  and  _197
REMARK   77  A    between atoms: _197  and  _198
REMARK   78  A    between atoms: _197  and  _200
REMARK   79  A    between atoms: _200  and  _201
REMARK   80  A    between atoms: _204  and  _206
REMARK   81  A    between atoms: _206  and  _207
REMARK   82  A    between atoms: _206  and  _209
REMARK   83  A    between atoms: _211  and  _213
REMARK   84  A    between atoms: _213  and  _214
REMARK   85  A    between atoms: _213  and  _216
REMARK   86  A    between atoms: _216  and  _217
REMARK   87  A    between atoms: _220  and  _222
REMARK   88  A    between atoms: _222  and  _223
REMARK   89  A    between atoms: _222  and  _225
REMARK   90  A    between atoms: _225  and  _226
REMARK   91  A    between atoms: _226  and  _227
REMARK   92  A    between atoms: _227  and  _228
REMARK   93  A    between atoms: _237  and  _239
REMARK   94  A    between atoms: _239  and  _240
REMARK   95  A    between atoms: _239  and  _242
REMARK   96  A    between atoms: _242  and  _243
REMARK   97  A    between atoms: _249  and  _251
REMARK   98  A    between atoms: _251  and  _252
REMARK   99  A    between atoms: _251  and  _254
REMARK  100  A    between atoms: _254  and  _255
REMARK  101  A    between atoms: _255  and  _256
REMARK  102  A    between atoms: _261  and  _263
REMARK  103  A    between atoms: _263  and  _264
REMARK  104  A    between atoms: _263  and  _266
REMARK  105  A    between atoms: _266  and  _267
REMARK  106  A    between atoms: _270  and  _272
REMARK  107  A    between atoms: _272  and  _273
REMARK  108  A    between atoms: _272  and  _275
REMARK  109  A    between atoms: _275  and  _276
REMARK  110  A    between atoms: _281  and  _283
REMARK  111  A    between atoms: _283  and  _284
REMARK  112  A    between atoms: _287  and  _289
REMARK  113  A    between atoms: _289  and  _290
REMARK  114  A    between atoms: _289  and  _292
REMARK  115  A    between atoms: _292  and  _293
REMARK  116  A    between atoms: _296  and  _298
REMARK  117  A    between atoms: _298  and  _299
REMARK  118  A    between atoms: _298  and  _301
REMARK  119  A    between atoms: _301  and  _302
REMARK  120  A    between atoms: _305  and  _307
REMARK  121  A    between atoms: _307  and  _308
REMARK  122  A    between atoms: _307  and  _310
REMARK  123  A    between atoms: _310  and  _311
REMARK  124  A    between atoms: _311  and  _312
REMARK  125  A    between atoms: _312  and  _313
REMARK  126  A    between atoms: _322  and  _324
REMARK  127  A    between atoms: _324  and  _325
REMARK  128  A    between atoms: _324  and  _327
REMARK  129  A    between atoms: _327  and  _328
REMARK  130  A    between atoms: _328  and  _329
REMARK  131  A    between atoms: _329  and  _330
REMARK  132  A    between atoms: _330  and  _331
REMARK  133  A    between atoms: _335  and  _337
REMARK  134  A    between atoms: _337  and  _338
REMARK  135  A    between atoms: _337  and  _340
REMARK  136  A    between atoms: _340  and  _341
REMARK  137  A    between atoms: _344  and  _346
REMARK  138  A    between atoms: _346  and  _347
REMARK  139  A    between atoms: _350  and  _352
REMARK  140  A    between atoms: _352  and  _353
REMARK  141  A    between atoms: _352  and  _355
REMARK  142  A    between atoms: _358  and  _360
REMARK  143  A    between atoms: _360  and  _361
REMARK  144  A    between atoms: _360  and  _363
REMARK  145  A    between atoms: _363  and  _364
REMARK  146  A    between atoms: _369  and  _371
REMARK  147  A    between atoms: _371  and  _372
REMARK  148  A    between atoms: _371  and  _374
REMARK  149  A    between atoms: _374  and  _375
REMARK  150  A    between atoms: _375  and  _376
REMARK  151  A    between atoms: _378  and  _380
REMARK  152  A    between atoms: _380  and  _381
REMARK  153  A    between atoms: _380  and  _383
REMARK  154  A    between atoms: _386  and  _388
REMARK  155  A    between atoms: _388  and  _389
REMARK  156  A    between atoms: _388  and  _391
REMARK  157  A    between atoms: _391  and  _392
REMARK  158  A    between atoms: _395  and  _397
REMARK  159  A    between atoms: _397  and  _398
REMARK  160  A    between atoms: _397  and  _400
REMARK  161  A    between atoms: _400  and  _401
REMARK  162  A    between atoms: _404  and  _406
REMARK  163  A    between atoms: _406  and  _407
REMARK  164  A    between atoms: _406  and  _409
REMARK  165  A    between atoms: _412  and  _414
REMARK  166  A    between atoms: _414  and  _415
REMARK  167  A    between atoms: _418  and  _420
REMARK  168  A    between atoms: _420  and  _421
REMARK  169  A    between atoms: _424  and  _426
REMARK  170  A    between atoms: _426  and  _427
REMARK  171  A    between atoms: _426  and  _429
REMARK  172  A    between atoms: _429  and  _430
REMARK  173  A    between atoms: _433  and  _435
REMARK  174  A    between atoms: _435  and  _436
REMARK  175  A    between atoms: _435  and  _438
REMARK  176  A    between atoms: _438  and  _439
REMARK  177  A    between atoms: _445  and  _447
REMARK  178  A    between atoms: _447  and  _448
REMARK  179  A    between atoms: _447  and  _450
REMARK  180  A    between atoms: _450  and  _451
REMARK  181  A    between atoms: _455  and  _456
REMARK  182  A    between atoms: _461  and  _463
REMARK  183  A    between atoms: _463  and  _464
REMARK  184  A    between atoms: _463  and  _466
REMARK  185  A    between atoms: _466  and  _467
REMARK  186  A    between atoms: _472  and  _474
REMARK  187  A    between atoms: _474  and  _475
REMARK  188  A    between atoms: _474  and  _477
REMARK  189  A    between atoms: _477  and  _478
REMARK  190  A    between atoms: _483  and  _485
REMARK  191  A    between atoms: _485  and  _486
REMARK  192  A    between atoms: _485  and  _488
REMARK  193  A    between atoms: _491  and  _493
REMARK  194  A    between atoms: _493  and  _494
REMARK  195  A    between atoms: _493  and  _496
REMARK  196  A    between atoms: _496  and  _497
REMARK  197  A    between atoms: _497  and  _498
REMARK  198  A    between atoms: _498  and  _499
REMARK  199  A    between atoms: _499  and  _500
REMARK  200  A    between atoms: _504  and  _506
REMARK  201  A    between atoms: _506  and  _507
REMARK  202  A    between atoms: _506  and  _509
REMARK  203  A    between atoms: _509  and  _510
REMARK  204  A    between atoms: _513  and  _515
REMARK  205  A    between atoms: _515  and  _516
REMARK  206  A    between atoms: _519  and  _521
REMARK  207  A    between atoms: _521  and  _522
REMARK  208  A    between atoms: _521  and  _524
REMARK  209  A    between atoms: _527  and  _529
REMARK  210  A    between atoms: _529  and  _530
REMARK  211  A    between atoms: _529  and  _532
REMARK  212  A    between atoms: _532  and  _533
REMARK  213  A    between atoms: _536  and  _538
REMARK  214  A    between atoms: _538  and  _539
REMARK  215  A    between atoms: _538  and  _541
REMARK  216  A    between atoms: _541  and  _542
REMARK  217  A    between atoms: _548  and  _550
REMARK  218  A    between atoms: _550  and  _551
REMARK  219  A    between atoms: _550  and  _553
REMARK  220  A    between atoms: _553  and  _554
REMARK  221  A    between atoms: _557  and  _559
REMARK  222  A    between atoms: _559  and  _560
REMARK  223  A    between atoms: _559  and  _562
REMARK  224  A    between atoms: _562  and  _563
REMARK                            x       y       z     vdW  Elec       q    Type
REMARK                         _______ _______ _______ _____ _____    ______ ____
ROOT
ATOM      1  C   CYS A   5      15.559  71.183  35.713  0.00  0.00    +0.242 C 
ATOM      2  O   CYS A   5      16.273  72.076  36.169  0.00  0.00    -0.273 OA
ATOM      3  N   LEU A   6      15.858  70.514  34.605  0.00  0.00    -0.297 N 
ATOM      4  H   LEU A   6      15.256  69.716  34.316  0.00  0.00    +0.150 HD
ENDROOT
BRANCH   3   5
ATOM      5  CA  LEU A   6      17.007  70.870  33.786  0.00  0.00    +0.149 C 
BRANCH   5   6
ATOM      6  C   LEU A   6      16.635  72.001  32.836  0.00  0.00    +0.241 C 
ATOM      7  O   LEU A   6      17.446  72.884  32.555  0.00  0.00    -0.273 OA
ATOM      8  N   ARG A   7      15.396  71.973  32.357  0.00  0.00    -0.297 N 
ATOM      9  H   ARG A   7      14.711  71.304  32.763  0.00  0.00    +0.150 HD
BRANCH   8  10
ATOM     10  CA  ARG A   7      14.970  72.856  31.276  0.00  0.00    +0.149 C 
BRANCH  10  11
ATOM     11  C   ARG A   7      14.237  74.114  31.738  0.00  0.00    +0.241 C 
ATOM     12  N   PHE A   8      13.717  74.098  32.961  0.00  0.00    -0.298 N 
ATOM     13  H   PHE A   8      13.881  73.278  33.580  0.00  0.00    +0.150 HD
ATOM     14  O   ARG A   7      14.145  75.088  30.992  0.00  0.00    -0.273 OA
BRANCH  12  15
ATOM     15  CA  PHE A   8      12.917  75.221  33.444  0.00  0.00    +0.141 C 
BRANCH  15  16
ATOM     16  C   PHE A   8      13.430  75.831  34.747  0.00  0.00    +0.227 C 
ATOM     17  O   PHE A   8      13.917  75.118  35.627  0.00  0.00    -0.286 OA
ENDBRANCH  15  16
BRANCH  15  18
ATOM     18  CB  PHE A   8      11.447  74.815  33.584  0.00  0.00    +0.054 C 
BRANCH  18  19
ATOM     19  CG  PHE A   8      10.762  74.575  32.271  0.00  0.00    -0.020 A 
ATOM     20  CD2 PHE A   8      10.442  73.292  31.864  0.00  0.00    -0.004 A 
ATOM     21  CE2 PHE A   8       9.813  73.071  30.653  0.00  0.00    -0.000 A 
ATOM     22  CZ  PHE A   8       9.498  74.137  29.835  0.00  0.00    -0.000 A 
ATOM     23  CE1 PHE A   8       9.813  75.422  30.228  0.00  0.00    -0.000 A 
ATOM     24  CD1 PHE A   8      10.441  75.637  31.440  0.00  0.00    -0.004 A 
ENDBRANCH  18  19
ENDBRANCH  15  18
ENDBRANCH  12  15
ENDBRANCH  10  11
BRANCH  10  25
ATOM     25  CB  ARG A   7      14.105  72.082  30.275  0.00  0.00    +0.033 C 
BRANCH  25  26
ATOM     26  CG  ARG A   7      14.835  70.931  29.599  0.00  0.00    +0.045 C 
BRANCH  26  27
ATOM     27  CD  ARG A   7      13.966  70.218  28.574  0.00  0.00    +0.174 C 
BRANCH  27  28
ATOM     28  NE  ARG A   7      12.860  69.487  29.186  0.00  0.00    -0.265 N 
ATOM     29  HE  ARG A   7      13.077  68.592  29.669  0.00  0.00    +0.259 HD
ATOM     30  CZ  ARG A   7      11.593  69.892  29.166  0.00  0.00    +0.342 C 
ATOM     31  NH2 ARG A   7      10.653  69.160  29.749  0.00  0.00    -0.292 N 
ATOM     32 HH21 ARG A   7      10.906  68.269  30.222  0.00  0.00    +0.255 HD
ATOM     33 HH22 ARG A   7       9.663  69.477  29.733  0.00  0.00    +0.255 HD
ATOM     34  NH1 ARG A   7      11.265  71.025  28.559  0.00  0.00    -0.292 N 
ATOM     35 HH11 ARG A   7      10.274  71.339  28.545  0.00  0.00    +0.255 HD
ATOM     36 HH12 ARG A   7      11.999  71.599  28.097  0.00  0.00    +0.255 HD
ENDBRANCH  27  28
ENDBRANCH  26  27
ENDBRANCH  25  26
ENDBRANCH  10  25
ENDBRANCH   8  10
ENDBRANCH   5   6
BRANCH   5  37
ATOM     37  CB  LEU A   6      17.482  69.659  32.979  0.00  0.00    +0.029 C 
BRANCH  37  38
ATOM     38  CG  LEU A   6      18.053  68.463  33.742  0.00  0.00    +0.002 C 
ATOM     39  CD2 LEU A   6      19.399  68.815  34.351  0.00  0.00    +0.000 C 
ATOM     40  CD1 LEU A   6      18.182  67.257  32.822  0.00  0.00    +0.000 C 
ENDBRANCH  37  38
ENDBRANCH   5  37
ENDBRANCH   3   5
BRANCH   1  41
ATOM     41  CA  CYS A   5      14.264  70.785  36.412  0.00  0.00    +0.160 C 
BRANCH  41  43
ATOM     42  C   THR A   4      12.805  70.341  34.515  0.00  0.00    +0.243 C 
ATOM     43  N   CYS A   5      13.446  69.895  35.591  0.00  0.00    -0.296 N 
ATOM     44  H   CYS A   5      13.364  68.892  35.854  0.00  0.00    +0.150 HD
ATOM     45  O   THR A   4      12.889  71.506  34.125  0.00  0.00    -0.273 OA
BRANCH  42  46
ATOM     46  CA  THR A   4      11.946  69.329  33.759  0.00  0.00    +0.176 C 
BRANCH  46  48
ATOM     47  C   THR A   3      13.742  68.053  32.712  0.00  0.00    +0.243 C 
ATOM     48  N   THR A   4      12.651  68.080  33.471  0.00  0.00    -0.295 N 
ATOM     49  H   THR A   4      12.289  67.190  33.870  0.00  0.00    +0.150 HD
ATOM     50  O   THR A   3      14.268  69.070  32.261  0.00  0.00    -0.273 OA
BRANCH  47  51
ATOM     51  CA  THR A   3      14.336  66.678  32.414  0.00  0.00    +0.176 C 
BRANCH  51  54
ATOM     52  C   VAL A   2      13.436  64.898  33.814  0.00  0.00    +0.241 C 
ATOM     53  O   VAL A   2      14.198  65.173  34.741  0.00  0.00    -0.273 OA
ATOM     54  N   THR A   3      13.398  65.593  32.682  0.00  0.00    -0.295 N 
ATOM     55  H   THR A   3      12.680  65.357  31.968  0.00  0.00    +0.150 HD
BRANCH  52  56
ATOM     56  CA  VAL A   2      12.441  63.741  33.929  0.00  0.00    +0.148 C 
BRANCH  56  59
ATOM     57  C   GLY A   1      10.416  65.080  33.699  0.00  0.00    +0.240 C 
ATOM     58  O   GLY A   1      10.712  65.807  34.648  0.00  0.00    -0.274 OA
ATOM     59  N   VAL A   2      11.172  64.067  33.294  0.00  0.00    -0.297 N 
ATOM     60  H   VAL A   2      10.847  63.486  32.495  0.00  0.00    +0.150 HD
BRANCH  57  61
ATOM     61  CA  GLY A   1       9.139  65.301  32.918  0.00  0.00    +0.169 C 
BRANCH  61  62
ATOM     62  N   GLY A   1       9.312  65.093  31.491  0.00  0.00    -0.236 NA
ATOM     63  H   GLY A   1       8.876  64.262  31.044  0.00  0.00    +0.142 HD
ENDBRANCH  61  62
ENDBRANCH  57  61
ENDBRANCH  56  59
BRANCH  56  64
ATOM     64  CB  VAL A   2      13.028  62.437  33.331  0.00  0.00    +0.027 C 
ATOM     65  CG2 VAL A   2      12.492  61.222  34.083  0.00  0.00    +0.002 C 
ATOM     66  CG1 VAL A   2      14.548  62.458  33.326  0.00  0.00    +0.002 C 
ENDBRANCH  56  64
ENDBRANCH  52  56
ENDBRANCH  51  54
BRANCH  51  67
ATOM     67  CB  THR A   3      14.791  66.661  30.944  0.00  0.00    +0.137 C 
ATOM     68  CG2 THR A   3      15.407  65.314  30.592  0.00  0.00    +0.034 C 
BRANCH  67  69
ATOM     69  OG1 THR A   3      13.664  66.906  30.092  0.00  0.00    -0.382 OA
ATOM     70  HG1 THR A   3      12.984  66.201  30.236  0.00  0.00    +0.210 HD
ENDBRANCH  67  69
ENDBRANCH  51  67
ENDBRANCH  47  51
ENDBRANCH  46  48
BRANCH  46  71
ATOM     71  CB  THR A   4      10.643  69.078  34.547  0.00  0.00    +0.137 C 
ATOM     72  CG2 THR A   4      10.023  70.394  34.985  0.00  0.00    +0.034 C 
BRANCH  71  73
ATOM     73  OG1 THR A   4       9.711  68.375  33.718  0.00  0.00    -0.382 OA
ATOM     74  HG1 THR A   4      10.103  67.508  33.444  0.00  0.00    +0.210 HD
ENDBRANCH  71  73
ENDBRANCH  46  71
ENDBRANCH  42  46
ENDBRANCH  41  43
BRANCH  41  75
ATOM     75  CB  CYS A   5      14.564  70.151  37.771  0.00  0.00    +0.098 C 
ATOM     76  SG  CYS A   5      13.101  69.900  38.795  0.00  0.00    -0.080 S 
ENDBRANCH  41  75
ENDBRANCH   1  41
TORSDOF 30
REMARK  Name = ../refined-set-2016/4o2b/4o2b_pocket.pdb
REMARK  224 active torsions:
REMARK  status: ('A' for Active; 'I' for Inactive)
REMARK    1  A    between atoms: _1  and  _3
REMARK    2  A    between atoms: _3  and  _4
REMARK    3  A    between atoms: _3  and  _6
REMARK    4  A    between atoms: _6  and  _7
REMARK    5  A    between atoms: _7  and  _8
REMARK    6  A    between atoms: _13  and  _15
REMARK    7  A    between atoms: _15  and  _16
REMARK    8  A    between atoms: _19  and  _21
REMARK    9  A    between atoms: _21  and  _22
REMARK   10  A    between atoms: _21  and  _24
REMARK   11  A    between atoms: _24  and  _25
REMARK   12  A    between atoms: _31  and  _32
REMARK   13  A    between atoms: _37  and  _39
REMARK   14  A    between atoms: _39  and  _40
REMARK   15  A    between atoms: _39  and  _42
REMARK   16  A    between atoms: _45  and  _47
REMARK   17  A    between atoms: _47  and  _48
REMARK   18  A    between atoms: _47  and  _50
REMARK   19  A    between atoms: _50  and  _51
REMARK   20  A    between atoms: _53  and  _55
REMARK   21  A    between atoms: _55  and  _56
REMARK   22  A    between atoms: _55  and  _58
REMARK   23  A    between atoms: _58  and  _59
REMARK   24  A    between atoms: _62  and  _64
REMARK   25  A    between atoms: _64  and  _65
REMARK   26  A    between atoms: _68  and  _70
REMARK   27  A    between atoms: _70  and  _71
REMARK   28  A    between atoms: _70  and  _73
REMARK   29  A    between atoms: _76  and  _78
REMARK   30  A    between atoms: _78  and  _79
REMARK   31  A    between atoms: _78  and  _81
REMARK   32  A    between atoms: _84  and  _86
REMARK   33  A    between atoms: _86  and  _87
REMARK   34  A    between atoms: _86  and  _89
REMARK   35  A    between atoms: _89  and  _90
REMARK   36  A    between atoms: _90  and  _91
REMARK   37  A    between atoms: _94  and  _96
REMARK   38  A    between atoms: _96  and  _97
REMARK   39  A    between atoms: _96  and  _99
REMARK   40  A    between atoms: _99  and  _100
REMARK   41  A    between atoms: _105  and  _106
REMARK   42  A    between atoms: _108  and  _110
REMARK   43  A    between atoms: _110  and  _111
REMARK   44  A    between atoms: _110  and  _113
REMARK   45  A    between atoms: _113  and  _114
REMARK   46  A    between atoms: _120  and  _122
REMARK   47  A    between atoms: _122  and  _123
REMARK   48  A    between atoms: _122  and  _125
REMARK   49  A    between atoms: _125  and  _126
REMARK   50  A    between atoms: _126  and  _127
REMARK   51  A    between atoms: _127  and  _128
REMARK   52  A    between atoms: _137  and  _139
REMARK   53  A    between atoms: _139  and  _140
REMARK   54  A    between atoms: _139  and  _142
REMARK   55  A    between atoms: _142  and  _143
REMARK   56  A    between atoms: _143  and  _144
REMARK   57  A    between atoms: _149  and  _151
REMARK   58  A    between atoms: _151  and  _152
REMARK   59  A    between atoms: _151  and  _154
REMARK   60  A    between atoms: _154  and  _155
REMARK   61  A    between atoms: _155  and  _156
REMARK   62  A    between atoms: _159  and  _161
REMARK   63  A    between atoms: _161  and  _162
REMARK   64  A    between atoms: _161  and  _164
REMARK   65  A    between atoms: _164  and  _165
REMARK   66  A    between atoms: _170  and  _171
REMARK   67  A    between atoms: _173  and  _175
REMARK   68  A    between atoms: _175  and  _176
REMARK   69  A    between atoms: _178  and  _180
REMARK   70  A    between atoms: _180  and  _181
REMARK   71  A    between atoms: _180  and  _183
REMARK   72  A    between atoms: _186  and  _188
REMARK   73  A    between atoms: _188  and  _189
REMARK   74  A    between atoms: _188  and  _191
REMARK   75  A    between atoms: _191  and  _192
REMARK   76  A    between atoms: _195  and  _197
REMARK   77  A    between atoms: _197  and  _198
REMARK   78  A    between atoms: _197  and  _200
REMARK   79  A    between atoms: _200  and  _201
REMARK   80  A    between atoms: _204  and  _206
REMARK   81  A    between atoms: _206  and  _207
REMARK   82  A    between atoms: _206  and  _209
REMARK   83  A    between atoms: _211  and  _213
REMARK   84  A    between atoms: _213  and  _214
REMARK   85  A    between atoms: _213  and  _216
REMARK   86  A    between atoms: _216  and  _217
REMARK   87  A    between atoms: _220  and  _222
REMARK   88  A    between atoms: _222  and  _223
REMARK   89  A    between atoms: _222  and  _225
REMARK   90  A    between atoms: _225  and  _226
REMARK   91  A    between atoms: _226  and  _227
REMARK   92  A    between atoms: _227  and  _228
REMARK   93  A    between atoms: _237  and  _239
REMARK   94  A    between atoms: _239  and  _240
REMARK   95  A    between atoms: _239  and  _242
REMARK   96  A    between atoms: _242  and  _243
REMARK   97  A    between atoms: _249  and  _251
REMARK   98  A    between atoms: _251  and  _252
REMARK   99  A    between atoms: _251  and  _254
REMARK  100  A    between atoms: _254  and  _255
REMARK  101  A    between atoms: _255  and  _256
REMARK  102  A    between atoms: _261  and  _263
REMARK  103  A    between atoms: _263  and  _264
REMARK  104  A    between atoms: _263  and  _266
REMARK  105  A    between atoms: _266  and  _267
REMARK  106  A    between atoms: _270  and  _272
REMARK  107  A    between atoms: _272  and  _273
REMARK  108  A    between atoms: _272  and  _275
REMARK  109  A    between atoms: _275  and  _276
REMARK  110  A    between atoms: _281  and  _283
REMARK  111  A    between atoms: _283  and  _284
REMARK  112  A    between atoms: _287  and  _289
REMARK  113  A    between atoms: _289  and  _290
REMARK  114  A    between atoms: _289  and  _292
REMARK  115  A    between atoms: _292  and  _293
REMARK  116  A    between atoms: _296  and  _298
REMARK  117  A    between atoms: _298  and  _299
REMARK  118  A    between atoms: _298  and  _301
REMARK  119  A    between atoms: _301  and  _302
REMARK  120  A    between atoms: _305  and  _307
REMARK  121  A    between atoms: _307  and  _308
REMARK  122  A    between atoms: _307  and  _310
REMARK  123  A    between atoms: _310  and  _311
REMARK  124  A    between atoms: _311  and  _312
REMARK  125  A    between atoms: _312  and  _313
REMARK  126  A    between atoms: _322  and  _324
REMARK  127  A    between atoms: _324  and  _325
REMARK  128  A    between atoms: _324  and  _327
REMARK  129  A    between atoms: _327  and  _328
REMARK  130  A    between atoms: _328  and  _329
REMARK  131  A    between atoms: _329  and  _330
REMARK  132  A    between atoms: _330  and  _331
REMARK  133  A    between atoms: _335  and  _337
REMARK  134  A    between atoms: _337  and  _338
REMARK  135  A    between atoms: _337  and  _340
REMARK  136  A    between atoms: _340  and  _341
REMARK  137  A    between atoms: _344  and  _346
REMARK  138  A    between atoms: _346  and  _347
REMARK  139  A    between atoms: _350  and  _352
REMARK  140  A    between atoms: _352  and  _353
REMARK  141  A    between atoms: _352  and  _355
REMARK  142  A    between atoms: _358  and  _360
REMARK  143  A    between atoms: _360  and  _361
REMARK  144  A    between atoms: _360  and  _363
REMARK  145  A    between atoms: _363  and  _364
REMARK  146  A    between atoms: _369  and  _371
REMARK  147  A    between atoms: _371  and  _372
REMARK  148  A    between atoms: _371  and  _374
REMARK  149  A    between atoms: _374  and  _375
REMARK  150  A    between atoms: _375  and  _376
REMARK  151  A    between atoms: _378  and  _380
REMARK  152  A    between atoms: _380  and  _381
REMARK  153  A    between atoms: _380  and  _383
REMARK  154  A    between atoms: _386  and  _388
REMARK  155  A    between atoms: _388  and  _389
REMARK  156  A    between atoms: _388  and  _391
REMARK  157  A    between atoms: _391  and  _392
REMARK  158  A    between atoms: _395  and  _397
REMARK  159  A    between atoms: _397  and  _398
REMARK  160  A    between atoms: _397  and  _400
REMARK  161  A    between atoms: _400  and  _401
REMARK  162  A    between atoms: _404  and  _406
REMARK  163  A    between atoms: _406  and  _407
REMARK  164  A    between atoms: _406  and  _409
REMARK  165  A    between atoms: _412  and  _414
REMARK  166  A    between atoms: _414  and  _415
REMARK  167  A    between atoms: _418  and  _420
REMARK  168  A    between atoms: _420  and  _421
REMARK  169  A    between atoms: _424  and  _426
REMARK  170  A    between atoms: _426  and  _427
REMARK  171  A    between atoms: _426  and  _429
REMARK  172  A    between atoms: _429  and  _430
REMARK  173  A    between atoms: _433  and  _435
REMARK  174  A    between atoms: _435  and  _436
REMARK  175  A    between atoms: _435  and  _438
REMARK  176  A    between atoms: _438  and  _439
REMARK  177  A    between atoms: _445  and  _447
REMARK  178  A    between atoms: _447  and  _448
REMARK  179  A    between atoms: _447  and  _450
REMARK  180  A    between atoms: _450  and  _451
REMARK  181  A    between atoms: _455  and  _456
REMARK  182  A    between atoms: _461  and  _463
REMARK  183  A    between atoms: _463  and  _464
REMARK  184  A    between atoms: _463  and  _466
REMARK  185  A    between atoms: _466  and  _467
REMARK  186  A    between atoms: _472  and  _474
REMARK  187  A    between atoms: _474  and  _475
REMARK  188  A    between atoms: _474  and  _477
REMARK  189  A    between atoms: _477  and  _478
REMARK  190  A    between atoms: _483  and  _485
REMARK  191  A    between atoms: _485  and  _486
REMARK  192  A    between atoms: _485  and  _488
REMARK  193  A    between atoms: _491  and  _493
REMARK  194  A    between atoms: _493  and  _494
REMARK  195  A    between atoms: _493  and  _496
REMARK  196  A    between atoms: _496  and  _497
REMARK  197  A    between atoms: _497  and  _498
REMARK  198  A    between atoms: _498  and  _499
REMARK  199  A    between atoms: _499  and  _500
REMARK  200  A    between atoms: _504  and  _506
REMARK  201  A    between atoms: _506  and  _507
REMARK  202  A    between atoms: _506  and  _509
REMARK  203  A    between atoms: _509  and  _510
REMARK  204  A    between atoms: _513  and  _515
REMARK  205  A    between atoms: _515  and  _516
REMARK  206  A    between atoms: _519  and  _521
REMARK  207  A    between atoms: _521  and  _522
REMARK  208  A    between atoms: _521  and  _524
REMARK  209  A    between atoms: _527  and  _529
REMARK  210  A    between atoms: _529  and  _530
REMARK  211  A    between atoms: _529  and  _532
REMARK  212  A    between atoms: _532  and  _533
REMARK  213  A    between atoms: _536  and  _538
REMARK  214  A    between atoms: _538  and  _539
REMARK  215  A    between atoms: _538  and  _541
REMARK  216  A    between atoms: _541  and  _542
REMARK  217  A    between atoms: _548  and  _550
REMARK  218  A    between atoms: _550  and  _551
REMARK  219  A    between atoms: _550  and  _553
REMARK  220  A    between atoms: _553  and  _554
REMARK  221  A    between atoms: _557  and  _559
REMARK  222  A    between atoms: _559  and  _560
REMARK  223  A    between atoms: _559  and  _562
REMARK  224  A    between atoms: _562  and  _563
REMARK                            x       y       z     vdW  Elec       q    Type
REMARK                         _______ _______ _______ _____ _____    ______ ____
ROOT
ATOM      1  CA  ARG A   7      25.705  65.325  38.789  0.00  0.00    +0.149 C 
ENDROOT
BRANCH   1   4
ATOM      2  C   LEU A   6      23.702  65.219  37.433  0.00  0.00    +0.241 C 
ATOM      3  O   LEU A   6      23.410  64.119  37.900  0.00  0.00    -0.273 OA
ATOM      4  N   ARG A   7      24.792  65.886  37.799  0.00  0.00    -0.297 N 
ATOM      5  H   ARG A   7      24.995  66.814  37.377  0.00  0.00    +0.150 HD
BRANCH   2   6
ATOM      6  CA  LEU A   6      22.810  65.873  36.383  0.00  0.00    +0.149 C 
BRANCH   6   9
ATOM      7  C   ASP A   5      22.234  67.960  37.506  0.00  0.00    +0.241 C 
ATOM      8  O   ASP A   5      21.721  67.365  38.453  0.00  0.00    -0.273 OA
ATOM      9  N   LEU A   6      22.794  67.332  36.476  0.00  0.00    -0.297 N 
ATOM     10  H   LEU A   6      23.232  67.893  35.717  0.00  0.00    +0.150 HD
BRANCH   7  11
ATOM     11  CA  ASP A   5      22.261  69.489  37.470  0.00  0.00    +0.160 C 
BRANCH  11  13
ATOM     12  C   ALA A   4      20.888  70.808  39.004  0.00  0.00    +0.241 C 
ATOM     13  N   ASP A   5      21.959  70.051  38.781  0.00  0.00    -0.297 N 
ATOM     14  H   ASP A   5      22.605  69.853  39.571  0.00  0.00    +0.150 HD
ATOM     15  O   ALA A   4      20.084  71.115  38.123  0.00  0.00    -0.273 OA
BRANCH  12  16
ATOM     16  CA  ALA A   4      20.698  71.276  40.445  0.00  0.00    +0.149 C 
ATOM     17  CB  ALA A   4      19.968  70.216  41.248  0.00  0.00    +0.031 C 
BRANCH  16  20
ATOM     18  C   ASN A   3      20.169  73.335  41.619  0.00  0.00    +0.241 C 
ATOM     19  O   ASN A   3      20.975  73.080  42.516  0.00  0.00    -0.273 OA
ATOM     20  N   ALA A   4      20.002  72.554  40.555  0.00  0.00    -0.297 N 
ATOM     21  H   ALA A   4      19.366  72.859  39.790  0.00  0.00    +0.150 HD
BRANCH  18  22
ATOM     22  CA  ASN A   3      19.303  74.587  41.690  0.00  0.00    +0.158 C 
BRANCH  22  24
ATOM     23  C   LEU A   2      16.939  73.977  41.602  0.00  0.00    +0.241 C 
ATOM     24  N   ASN A   3      18.026  74.267  42.312  0.00  0.00    -0.297 N 
ATOM     25  H   ASN A   3      17.961  74.265  43.350  0.00  0.00    +0.150 HD
ATOM     26  O   LEU A   2      16.903  74.022  40.370  0.00  0.00    -0.273 OA
BRANCH  23  27
ATOM     27  CA  LEU A   2      15.710  73.570  42.410  0.00  0.00    +0.149 C 
BRANCH  27  30
ATOM     28  C   GLN A   1      14.620  75.563  43.279  0.00  0.00    +0.238 C 
ATOM     29  O   GLN A   1      15.537  75.784  44.069  0.00  0.00    -0.274 OA
ATOM     30  N   LEU A   2      14.649  74.570  42.396  0.00  0.00    -0.297 N 
ATOM     31  H   LEU A   2      13.898  74.505  41.679  0.00  0.00    +0.150 HD
BRANCH  28  32
ATOM     32  CA  GLN A   1      13.374  76.443  43.265  0.00  0.00    +0.145 C 
BRANCH  32  33
ATOM     33  N   GLN A   1      12.762  76.495  41.945  0.00  0.00    -0.238 NA
ATOM     34  H   GLN A   1      11.798  76.124  41.827  0.00  0.00    +0.142 HD
ENDBRANCH  32  33
BRANCH  32  35
ATOM     35  CB  GLN A   1      12.361  75.917  44.282  0.00  0.00    +0.036 C 
BRANCH  35  36
ATOM     36  CG  GLN A   1      11.510  74.764  43.758  0.00  0.00    +0.087 C 
BRANCH  36  37
ATOM     37  CD  GLN A   1      11.487  73.573  44.697  0.00  0.00    +0.219 C 
ATOM     38  NE2 GLN A   1      12.524  73.444  45.515  0.00  0.00    -0.329 N 
ATOM     39 HE21 GLN A   1      12.568  72.643  46.177  0.00  0.00    +0.145 HD
ATOM     40 HE22 GLN A   1      13.293  74.144  45.494  0.00  0.00    +0.145 HD
ATOM     41  OE1 GLN A   1      10.551  72.773  44.681  0.00  0.00    -0.275 OA
ENDBRANCH  36  37
ENDBRANCH  35  36
ENDBRANCH  32  35
ENDBRANCH  28  32
ENDBRANCH  27  30
BRANCH  27  42
ATOM     42  CB  LEU A   2      15.177  72.221  41.921  0.00  0.00    +0.029 C 
BRANCH  42  43
ATOM     43  CG  LEU A   2      16.041  71.018  42.290  0.00  0.00    +0.002 C 
ATOM     44  CD2 LEU A   2      16.388  71.076  43.766  0.00  0.00    +0.000 C 
ATOM     45  CD1 LEU A   2      15.320  69.722  41.961  0.00  0.00    +0.000 C 
ENDBRANCH  42  43
ENDBRANCH  27  42
ENDBRANCH  23  27
ENDBRANCH  22  24
BRANCH  22  46
ATOM     46  CB  ASN A   3      20.021  75.672  42.494  0.00  0.00    +0.114 C 
BRANCH  46  47
ATOM     47  CG  ASN A   3      21.213  76.262  41.758  0.00  0.00    +0.222 C 
ATOM     48  ND2 ASN A   3      21.751  77.354  42.291  0.00  0.00    -0.329 N 
ATOM     49 HD21 ASN A   3      21.350  77.760  43.160  0.00  0.00    +0.145 HD
ATOM     50 HD22 ASN A   3      22.573  77.803  41.839  0.00  0.00    +0.145 HD
ATOM     51  OD1 ASN A   3      21.649  75.741  40.730  0.00  0.00    -0.275 OA
ENDBRANCH  46  47
ENDBRANCH  22  46
ENDBRANCH  18  22
ENDBRANCH  16  20
ENDBRANCH  12  16
ENDBRANCH  11  13
BRANCH  11  52
ATOM     52  CB  ASP A   5      23.620  69.990  36.974  0.00  0.00    +0.143 C 
BRANCH  52  53
ATOM     53  CG  ASP A   5      24.710  69.866  38.023  0.00  0.00    +0.367 C 
ATOM     54  OD2 ASP A   5      24.581  69.016  38.928  0.00  0.00    -0.246 OA
ATOM     55  OD1 ASP A   5      25.701  70.621  37.940  0.00  0.00    -0.246 OA
ENDBRANCH  52  53
ENDBRANCH  11  52
ENDBRANCH   7  11
ENDBRANCH   6   9
BRANCH   6  56
ATOM     56  CB  LEU A   6      23.235  65.420  34.982  0.00  0.00    +0.029 C 
BRANCH  56  57
ATOM     57  CG  LEU A   6      22.189  65.541  33.872  0.00  0.00    +0.002 C 
ATOM     58  CD2 LEU A   6      20.942  64.742  34.216  0.00  0.00    +0.000 C 
ATOM     59  CD1 LEU A   6      22.771  65.094  32.540  0.00  0.00    +0.000 C 
ENDBRANCH  56  57
ENDBRANCH   6  56
ENDBRANCH   2   6
ENDBRANCH   1   4
BRANCH   1  60
ATOM     60  C   ARG A   7      25.083  65.315  40.186  0.00  0.00    +0.241 C 
ATOM     61  O   ARG A   7      25.214  64.334  40.916  0.00  0.00    -0.273 OA
ATOM     62  N   LYS A   8      24.400  66.399  40.549  0.00  0.00    -0.297 N 
ATOM     63  H   LYS A   8      24.381  67.224  39.916  0.00  0.00    +0.150 HD
BRANCH  62  64
ATOM     64  CA  LYS A   8      23.677  66.453  41.818  0.00  0.00    +0.149 C 
BRANCH  64  65
ATOM     65  C   LYS A   8      22.617  65.362  41.885  0.00  0.00    +0.241 C 
ATOM     66  O   LYS A   8      22.381  64.778  42.943  0.00  0.00    -0.273 OA
ATOM     67  N   LEU A   9      21.980  65.092  40.749  0.00  0.00    -0.297 N 
ATOM     68  H   LEU A   9      22.200  65.647  39.897  0.00  0.00    +0.150 HD
BRANCH  67  69
ATOM     69  CA  LEU A   9      20.981  64.035  40.673  0.00  0.00    +0.149 C 
BRANCH  69  70
ATOM     70  C   LEU A   9      21.622  62.678  40.934  0.00  0.00    +0.241 C 
ATOM     71  O   LEU A   9      21.138  61.904  41.758  0.00  0.00    -0.273 OA
ATOM     72  N   ALA A  10      22.718  62.403  40.232  0.00  0.00    -0.297 N 
ATOM     73  H   ALA A  10      23.087  63.117  39.572  0.00  0.00    +0.150 HD
BRANCH  72  74
ATOM     74  CA  ALA A  10      23.418  61.128  40.362  0.00  0.00    +0.149 C 
ATOM     75  CB  ALA A  10      24.553  61.040  39.350  0.00  0.00    +0.031 C 
BRANCH  74  76
ATOM     76  C   ALA A  10      23.947  60.911  41.776  0.00  0.00    +0.241 C 
ATOM     77  N   VAL A  11      24.502  61.963  42.370  0.00  0.00    -0.297 N 
ATOM     78  H   VAL A  11      24.544  62.869  41.861  0.00  0.00    +0.150 HD
ATOM     79  O   ALA A  10      23.851  59.811  42.317  0.00  0.00    -0.273 OA
BRANCH  77  80
ATOM     80  CA  VAL A  11      25.054  61.878  43.718  0.00  0.00    +0.149 C 
BRANCH  80  81
ATOM     81  C   VAL A  11      24.000  61.446  44.738  0.00  0.00    +0.241 C 
ATOM     82  O   VAL A  11      24.261  60.599  45.591  0.00  0.00    -0.273 OA
ATOM     83  N   ASN A  12      22.802  62.010  44.629  0.00  0.00    -0.297 N 
ATOM     84  H   ASN A  12      22.610  62.652  43.834  0.00  0.00    +0.150 HD
BRANCH  83  85
ATOM     85  CA  ASN A  12      21.751  61.745  45.605  0.00  0.00    +0.158 C 
BRANCH  85  86
ATOM     86  C   ASN A  12      20.875  60.531  45.297  0.00  0.00    +0.241 C 
ATOM     87  O   ASN A  12      20.229  59.988  46.192  0.00  0.00    -0.273 OA
ATOM     88  N   MET A  13      20.852  60.108  44.036  0.00  0.00    -0.297 N 
ATOM     89  H   MET A  13      21.439  60.590  43.326  0.00  0.00    +0.150 HD
BRANCH  88  90
ATOM     90  CA  MET A  13      20.018  58.979  43.630  0.00  0.00    +0.149 C 
BRANCH  90  91
ATOM     91  C   MET A  13      20.772  57.652  43.642  0.00  0.00    +0.241 C 
ATOM     92  O   MET A  13      20.157  56.587  43.694  0.00  0.00    -0.273 OA
ATOM     93  N   VAL A  14      22.099  57.718  43.593  0.00  0.00    -0.298 N 
ATOM     94  H   VAL A  14      22.564  58.646  43.661  0.00  0.00    +0.150 HD
BRANCH  93  95
ATOM     95  CA  VAL A  14      22.919  56.518  43.446  0.00  0.00    +0.137 C 
BRANCH  95  96
ATOM     96  CB  VAL A  14      23.783  56.595  42.169  0.00  0.00    +0.026 C 
ATOM     97  CG2 VAL A  14      24.526  55.287  41.939  0.00  0.00    +0.002 C 
ATOM     98  CG1 VAL A  14      22.917  56.935  40.965  0.00  0.00    +0.002 C 
ENDBRANCH  95  96
BRANCH  95  99
ATOM     99  C   VAL A  14      23.821  56.285  44.658  0.00  0.00    +0.227 C 
ATOM    100  O   VAL A  14      24.918  56.837  44.735  0.00  0.00    -0.286 OA
ENDBRANCH  95  99
ENDBRANCH  93  95
ENDBRANCH  90  91
BRANCH  90 101
ATOM    101  CB  MET A  13      19.423  59.219  42.238  0.00  0.00    +0.041 C 
BRANCH 101 102
ATOM    102  CG  MET A  13      18.349  60.294  42.188  0.00  0.00    +0.060 C 
BRANCH 102 103
ATOM    103  SD  MET A  13      16.832  59.818  43.037  0.00  0.00    -0.139 S 
ATOM    104  CE  MET A  13      16.246  58.489  41.988  0.00  0.00    +0.069 C 
ENDBRANCH 102 103
ENDBRANCH 101 102
ENDBRANCH  90 101
ENDBRANCH  88  90
ENDBRANCH  85  86
BRANCH  85 105
ATOM    105  CB  ASN A  12      20.882  62.987  45.807  0.00  0.00    +0.114 C 
BRANCH 105 106
ATOM    106  CG  ASN A  12      21.636  64.124  46.473  0.00  0.00    +0.222 C 
ATOM    107  OD1 ASN A  12      22.010  64.031  47.641  0.00  0.00    -0.275 OA
ATOM    108  ND2 ASN A  12      21.856  65.207  45.734  0.00  0.00    -0.329 N 
ATOM    109 HD21 ASN A  12      22.363  66.019  46.140  0.00  0.00    +0.145 HD
ATOM    110 HD22 ASN A  12      21.521  65.242  44.750  0.00  0.00    +0.145 HD
ENDBRANCH 105 106
ENDBRANCH  85 105
ENDBRANCH  83  85
ENDBRANCH  80  81
BRANCH  80 111
ATOM    111  CB  VAL A  11      25.697  63.215  44.157  0.00  0.00    +0.027 C 
ATOM    112  CG2 VAL A  11      25.934  63.236  45.659  0.00  0.00    +0.002 C 
ATOM    113  CG1 VAL A  11      27.002  63.445  43.411  0.00  0.00    +0.002 C 
ENDBRANCH  80 111
ENDBRANCH  77  80
ENDBRANCH  74  76
ENDBRANCH  72  74
ENDBRANCH  69  70
BRANCH  69 114
ATOM    114  CB  LEU A   9      20.289  64.037  39.308  0.00  0.00    +0.029 C 
BRANCH 114 115
ATOM    115  CG  LEU A   9      19.165  63.012  39.133  0.00  0.00    +0.002 C 
ATOM    116  CD2 LEU A   9      18.022  63.292  40.102  0.00  0.00    +0.000 C 
ATOM    117  CD1 LEU A   9      18.664  62.995  37.696  0.00  0.00    +0.000 C 
ENDBRANCH 114 115
ENDBRANCH  69 114
ENDBRANCH  67  69
ENDBRANCH  64  65
BRANCH  64 118
ATOM    118  CB  LYS A   8      23.025  67.821  42.031  0.00  0.00    +0.029 C 
BRANCH 118 119
ATOM    119  CG  LYS A   8      23.936  68.847  42.671  0.00  0.00    +0.000 C 
BRANCH 119 120
ATOM    120  CD  LYS A   8      23.190  70.122  43.021  0.00  0.00    -0.024 C 
BRANCH 120 121
ATOM    121  CE  LYS A   8      24.117  71.137  43.668  0.00  0.00    -0.086 C 
BRANCH 121 122
ATOM    122  NZ  LYS A   8      23.407  72.404  44.001  0.00  0.00    +0.380 N 
ATOM    123  HZ1 LYS A   8      22.631  72.201  44.663  0.00  0.00    -0.089 HD
ATOM    124  HZ2 LYS A   8      24.075  73.069  44.440  0.00  0.00    -0.089 HD
ATOM    125  HZ3 LYS A   8      23.021  72.823  43.131  0.00  0.00    -0.089 HD
ENDBRANCH 121 122
ENDBRANCH 120 121
ENDBRANCH 119 120
ENDBRANCH 118 119
ENDBRANCH  64 118
ENDBRANCH  62  64
ENDBRANCH   1  60
BRANCH   1 126
ATOM    126  CB  ARG A   7      27.052  66.055  38.798  0.00  0.00    +0.033 C 
BRANCH 126 127
ATOM    127  CG  ARG A   7      28.071  65.422  39.740  0.00  0.00    +0.045 C 
BRANCH 127 128
ATOM    128  CD  ARG A   7      29.445  66.070  39.643  0.00  0.00    +0.174 C 
BRANCH 128 129
ATOM    129  NE  ARG A   7      30.187  65.614  38.471  0.00  0.00    -0.265 N 
ATOM    130  HE  ARG A   7      30.630  64.674  38.511  0.00  0.00    +0.259 HD
ATOM    131  CZ  ARG A   7      30.333  66.323  37.357  0.00  0.00    +0.342 C 
ATOM    132  NH2 ARG A   7      29.790  67.529  37.262  0.00  0.00    -0.292 N 
ATOM    133 HH21 ARG A   7      29.250  67.920  38.060  0.00  0.00    +0.255 HD
ATOM    134 HH22 ARG A   7      29.905  68.084  36.390  0.00  0.00    +0.255 HD
ATOM    135  NH1 ARG A   7      31.025  65.826  36.341  0.00  0.00    -0.292 N 
ATOM    136 HH11 ARG A   7      31.453  64.881  36.416  0.00  0.00    +0.255 HD
ATOM    137 HH12 ARG A   7      31.139  66.381  35.469  0.00  0.00    +0.255 HD
ENDBRANCH 128 129
ENDBRANCH 127 128
ENDBRANCH 126 127
ENDBRANCH   1 126
TORSDOF 57
REMARK  Name = ../refined-set-2016/4o2b/4o2b_pocket.pdb
REMARK  224 active torsions:
REMARK  status: ('A' for Active; 'I' for Inactive)
REMARK    1  A    between atoms: _1  and  _3
REMARK    2  A    between atoms: _3  and  _4
REMARK    3  A    between atoms: _3  and  _6
REMARK    4  A    between atoms: _6  and  _7
REMARK    5  A    between atoms: _7  and  _8
REMARK    6  A    between atoms: _13  and  _15
REMARK    7  A    between atoms: _15  and  _16
REMARK    8  A    between atoms: _19  and  _21
REMARK    9  A    between atoms: _21  and  _22
REMARK   10  A    between atoms: _21  and  _24
REMARK   11  A    between atoms: _24  and  _25
REMARK   12  A    between atoms: _31  and  _32
REMARK   13  A    between atoms: _37  and  _39
REMARK   14  A    between atoms: _39  and  _40
REMARK   15  A    between atoms: _39  and  _42
REMARK   16  A    between atoms: _45  and  _47
REMARK   17  A    between atoms: _47  and  _48
REMARK   18  A    between atoms: _47  and  _50
REMARK   19  A    between atoms: _50  and  _51
REMARK   20  A    between atoms: _53  and  _55
REMARK   21  A    between atoms: _55  and  _56
REMARK   22  A    between atoms: _55  and  _58
REMARK   23  A    between atoms: _58  and  _59
REMARK   24  A    between atoms: _62  and  _64
REMARK   25  A    between atoms: _64  and  _65
REMARK   26  A    between atoms: _68  and  _70
REMARK   27  A    between atoms: _70  and  _71
REMARK   28  A    between atoms: _70  and  _73
REMARK   29  A    between atoms: _76  and  _78
REMARK   30  A    between atoms: _78  and  _79
REMARK   31  A    between atoms: _78  and  _81
REMARK   32  A    between atoms: _84  and  _86
REMARK   33  A    between atoms: _86  and  _87
REMARK   34  A    between atoms: _86  and  _89
REMARK   35  A    between atoms: _89  and  _90
REMARK   36  A    between atoms: _90  and  _91
REMARK   37  A    between atoms: _94  and  _96
REMARK   38  A    between atoms: _96  and  _97
REMARK   39  A    between atoms: _96  and  _99
REMARK   40  A    between atoms: _99  and  _100
REMARK   41  A    between atoms: _105  and  _106
REMARK   42  A    between atoms: _108  and  _110
REMARK   43  A    between atoms: _110  and  _111
REMARK   44  A    between atoms: _110  and  _113
REMARK   45  A    between atoms: _113  and  _114
REMARK   46  A    between atoms: _120  and  _122
REMARK   47  A    between atoms: _122  and  _123
REMARK   48  A    between atoms: _122  and  _125
REMARK   49  A    between atoms: _125  and  _126
REMARK   50  A    between atoms: _126  and  _127
REMARK   51  A    between atoms: _127  and  _128
REMARK   52  A    between atoms: _137  and  _139
REMARK   53  A    between atoms: _139  and  _140
REMARK   54  A    between atoms: _139  and  _142
REMARK   55  A    between atoms: _142  and  _143
REMARK   56  A    between atoms: _143  and  _144
REMARK   57  A    between atoms: _149  and  _151
REMARK   58  A    between atoms: _151  and  _152
REMARK   59  A    between atoms: _151  and  _154
REMARK   60  A    between atoms: _154  and  _155
REMARK   61  A    between atoms: _155  and  _156
REMARK   62  A    between atoms: _159  and  _161
REMARK   63  A    between atoms: _161  and  _162
REMARK   64  A    between atoms: _161  and  _164
REMARK   65  A    between atoms: _164  and  _165
REMARK   66  A    between atoms: _170  and  _171
REMARK   67  A    between atoms: _173  and  _175
REMARK   68  A    between atoms: _175  and  _176
REMARK   69  A    between atoms: _178  and  _180
REMARK   70  A    between atoms: _180  and  _181
REMARK   71  A    between atoms: _180  and  _183
REMARK   72  A    between atoms: _186  and  _188
REMARK   73  A    between atoms: _188  and  _189
REMARK   74  A    between atoms: _188  and  _191
REMARK   75  A    between atoms: _191  and  _192
REMARK   76  A    between atoms: _195  and  _197
REMARK   77  A    between atoms: _197  and  _198
REMARK   78  A    between atoms: _197  and  _200
REMARK   79  A    between atoms: _200  and  _201
REMARK   80  A    between atoms: _204  and  _206
REMARK   81  A    between atoms: _206  and  _207
REMARK   82  A    between atoms: _206  and  _209
REMARK   83  A    between atoms: _211  and  _213
REMARK   84  A    between atoms: _213  and  _214
REMARK   85  A    between atoms: _213  and  _216
REMARK   86  A    between atoms: _216  and  _217
REMARK   87  A    between atoms: _220  and  _222
REMARK   88  A    between atoms: _222  and  _223
REMARK   89  A    between atoms: _222  and  _225
REMARK   90  A    between atoms: _225  and  _226
REMARK   91  A    between atoms: _226  and  _227
REMARK   92  A    between atoms: _227  and  _228
REMARK   93  A    between atoms: _237  and  _239
REMARK   94  A    between atoms: _239  and  _240
REMARK   95  A    between atoms: _239  and  _242
REMARK   96  A    between atoms: _242  and  _243
REMARK   97  A    between atoms: _249  and  _251
REMARK   98  A    between atoms: _251  and  _252
REMARK   99  A    between atoms: _251  and  _254
REMARK  100  A    between atoms: _254  and  _255
REMARK  101  A    between atoms: _255  and  _256
REMARK  102  A    between atoms: _261  and  _263
REMARK  103  A    between atoms: _263  and  _264
REMARK  104  A    between atoms: _263  and  _266
REMARK  105  A    between atoms: _266  and  _267
REMARK  106  A    between atoms: _270  and  _272
REMARK  107  A    between atoms: _272  and  _273
REMARK  108  A    between atoms: _272  and  _275
REMARK  109  A    between atoms: _275  and  _276
REMARK  110  A    between atoms: _281  and  _283
REMARK  111  A    between atoms: _283  and  _284
REMARK  112  A    between atoms: _287  and  _289
REMARK  113  A    between atoms: _289  and  _290
REMARK  114  A    between atoms: _289  and  _292
REMARK  115  A    between atoms: _292  and  _293
REMARK  116  A    between atoms: _296  and  _298
REMARK  117  A    between atoms: _298  and  _299
REMARK  118  A    between atoms: _298  and  _301
REMARK  119  A    between atoms: _301  and  _302
REMARK  120  A    between atoms: _305  and  _307
REMARK  121  A    between atoms: _307  and  _308
REMARK  122  A    between atoms: _307  and  _310
REMARK  123  A    between atoms: _310  and  _311
REMARK  124  A    between atoms: _311  and  _312
REMARK  125  A    between atoms: _312  and  _313
REMARK  126  A    between atoms: _322  and  _324
REMARK  127  A    between atoms: _324  and  _325
REMARK  128  A    between atoms: _324  and  _327
REMARK  129  A    between atoms: _327  and  _328
REMARK  130  A    between atoms: _328  and  _329
REMARK  131  A    between atoms: _329  and  _330
REMARK  132  A    between atoms: _330  and  _331
REMARK  133  A    between atoms: _335  and  _337
REMARK  134  A    between atoms: _337  and  _338
REMARK  135  A    between atoms: _337  and  _340
REMARK  136  A    between atoms: _340  and  _341
REMARK  137  A    between atoms: _344  and  _346
REMARK  138  A    between atoms: _346  and  _347
REMARK  139  A    between atoms: _350  and  _352
REMARK  140  A    between atoms: _352  and  _353
REMARK  141  A    between atoms: _352  and  _355
REMARK  142  A    between atoms: _358  and  _360
REMARK  143  A    between atoms: _360  and  _361
REMARK  144  A    between atoms: _360  and  _363
REMARK  145  A    between atoms: _363  and  _364
REMARK  146  A    between atoms: _369  and  _371
REMARK  147  A    between atoms: _371  and  _372
REMARK  148  A    between atoms: _371  and  _374
REMARK  149  A    between atoms: _374  and  _375
REMARK  150  A    between atoms: _375  and  _376
REMARK  151  A    between atoms: _378  and  _380
REMARK  152  A    between atoms: _380  and  _381
REMARK  153  A    between atoms: _380  and  _383
REMARK  154  A    between atoms: _386  and  _388
REMARK  155  A    between atoms: _388  and  _389
REMARK  156  A    between atoms: _388  and  _391
REMARK  157  A    between atoms: _391  and  _392
REMARK  158  A    between atoms: _395  and  _397
REMARK  159  A    between atoms: _397  and  _398
REMARK  160  A    between atoms: _397  and  _400
REMARK  161  A    between atoms: _400  and  _401
REMARK  162  A    between atoms: _404  and  _406
REMARK  163  A    between atoms: _406  and  _407
REMARK  164  A    between atoms: _406  and  _409
REMARK  165  A    between atoms: _412  and  _414
REMARK  166  A    between atoms: _414  and  _415
REMARK  167  A    between atoms: _418  and  _420
REMARK  168  A    between atoms: _420  and  _421
REMARK  169  A    between atoms: _424  and  _426
REMARK  170  A    between atoms: _426  and  _427
REMARK  171  A    between atoms: _426  and  _429
REMARK  172  A    between atoms: _429  and  _430
REMARK  173  A    between atoms: _433  and  _435
REMARK  174  A    between atoms: _435  and  _436
REMARK  175  A    between atoms: _435  and  _438
REMARK  176  A    between atoms: _438  and  _439
REMARK  177  A    between atoms: _445  and  _447
REMARK  178  A    between atoms: _447  and  _448
REMARK  179  A    between atoms: _447  and  _450
REMARK  180  A    between atoms: _450  and  _451
REMARK  181  A    between atoms: _455  and  _456
REMARK  182  A    between atoms: _461  and  _463
REMARK  183  A    between atoms: _463  and  _464
REMARK  184  A    between atoms: _463  and  _466
REMARK  185  A    between atoms: _466  and  _467
REMARK  186  A    between atoms: _472  and  _474
REMARK  187  A    between atoms: _474  and  _475
REMARK  188  A    between atoms: _474  and  _477
REMARK  189  A    between atoms: _477  and  _478
REMARK  190  A    between atoms: _483  and  _485
REMARK  191  A    between atoms: _485  and  _486
REMARK  192  A    between atoms: _485  and  _488
REMARK  193  A    between atoms: _491  and  _493
REMARK  194  A    between atoms: _493  and  _494
REMARK  195  A    between atoms: _493  and  _496
REMARK  196  A    between atoms: _496  and  _497
REMARK  197  A    between atoms: _497  and  _498
REMARK  198  A    between atoms: _498  and  _499
REMARK  199  A    between atoms: _499  and  _500
REMARK  200  A    between atoms: _504  and  _506
REMARK  201  A    between atoms: _506  and  _507
REMARK  202  A    between atoms: _506  and  _509
REMARK  203  A    between atoms: _509  and  _510
REMARK  204  A    between atoms: _513  and  _515
REMARK  205  A    between atoms: _515  and  _516
REMARK  206  A    between atoms: _519  and  _521
REMARK  207  A    between atoms: _521  and  _522
REMARK  208  A    between atoms: _521  and  _524
REMARK  209  A    between atoms: _527  and  _529
REMARK  210  A    between atoms: _529  and  _530
REMARK  211  A    between atoms: _529  and  _532
REMARK  212  A    between atoms: _532  and  _533
REMARK  213  A    between atoms: _536  and  _538
REMARK  214  A    between atoms: _538  and  _539
REMARK  215  A    between atoms: _538  and  _541
REMARK  216  A    between atoms: _541  and  _542
REMARK  217  A    between atoms: _548  and  _550
REMARK  218  A    between atoms: _550  and  _551
REMARK  219  A    between atoms: _550  and  _553
REMARK  220  A    between atoms: _553  and  _554
REMARK  221  A    between atoms: _557  and  _559
REMARK  222  A    between atoms: _559  and  _560
REMARK  223  A    between atoms: _559  and  _562
REMARK  224  A    between atoms: _562  and  _563
REMARK                            x       y       z     vdW  Elec       q    Type
REMARK                         _______ _______ _______ _____ _____    ______ ____
ROOT
ATOM      1  CA  ALA A   4      12.665  61.570  43.005  0.00  0.00    +0.149 C 
ATOM      2  CB  ALA A   4      13.774  61.960  42.046  0.00  0.00    +0.031 C 
ENDROOT
BRANCH   1   5
ATOM      3  C   VAL A   3      13.003  59.864  44.713  0.00  0.00    +0.241 C 
ATOM      4  O   VAL A   3      13.210  60.697  45.595  0.00  0.00    -0.273 OA
ATOM      5  N   ALA A   4      12.823  60.188  43.436  0.00  0.00    -0.297 N 
ATOM      6  H   ALA A   4      12.794  59.431  42.723  0.00  0.00    +0.150 HD
BRANCH   3   7
ATOM      7  CA  VAL A   3      12.961  58.376  45.040  0.00  0.00    +0.149 C 
BRANCH   7   9
ATOM      8  C   THR A   2      14.775  56.894  45.694  0.00  0.00    +0.243 C 
ATOM      9  N   VAL A   3      14.076  58.004  45.904  0.00  0.00    -0.297 N 
ATOM     10  H   VAL A   3      14.329  58.621  46.702  0.00  0.00    +0.150 HD
ATOM     11  O   THR A   2      14.505  56.100  44.793  0.00  0.00    -0.273 OA
BRANCH   8  12
ATOM     12  CA  THR A   2      15.945  56.634  46.637  0.00  0.00    +0.176 C 
BRANCH  12  15
ATOM     13  C   LEU A   1      16.505  54.613  47.902  0.00  0.00    +0.238 C 
ATOM     14  O   LEU A   1      16.687  55.232  48.949  0.00  0.00    -0.274 OA
ATOM     15  N   THR A   2      16.164  55.197  46.758  0.00  0.00    -0.295 N 
ATOM     16  H   THR A   2      16.048  54.603  45.912  0.00  0.00    +0.150 HD
BRANCH  13  17
ATOM     17  CA  LEU A   1      16.663  53.102  47.846  0.00  0.00    +0.145 C 
BRANCH  17  18
ATOM     18  N   LEU A   1      15.432  52.532  47.321  0.00  0.00    -0.238 NA
ATOM     19  H   LEU A   1      15.408  52.182  46.342  0.00  0.00    +0.142 HD
ENDBRANCH  17  18
BRANCH  17  20
ATOM     20  CB  LEU A   1      17.851  52.736  46.954  0.00  0.00    +0.026 C 
BRANCH  20  21
ATOM     21  CG  LEU A   1      18.183  51.249  46.818  0.00  0.00    +0.002 C 
ATOM     22  CD2 LEU A   1      18.557  50.663  48.170  0.00  0.00    +0.000 C 
ATOM     23  CD1 LEU A   1      19.306  51.039  45.811  0.00  0.00    +0.000 C 
ENDBRANCH  20  21
ENDBRANCH  17  20
ENDBRANCH  13  17
ENDBRANCH  12  15
BRANCH  12  24
ATOM     24  CB  THR A   2      17.189  57.352  46.076  0.00  0.00    +0.137 C 
ATOM     25  CG2 THR A   2      18.345  57.309  47.071  0.00  0.00    +0.034 C 
BRANCH  24  26
ATOM     26  OG1 THR A   2      17.595  56.723  44.854  0.00  0.00    -0.382 OA
ATOM     27  HG1 THR A   2      18.394  57.185  44.496  0.00  0.00    +0.210 HD
ENDBRANCH  24  26
ENDBRANCH  12  24
ENDBRANCH   8  12
ENDBRANCH   7   9
BRANCH   7  28
ATOM     28  CB  VAL A   3      11.589  58.036  45.680  0.00  0.00    +0.027 C 
ATOM     29  CG2 VAL A   3      11.436  56.533  45.872  0.00  0.00    +0.002 C 
ATOM     30  CG1 VAL A   3      10.448  58.579  44.831  0.00  0.00    +0.002 C 
ENDBRANCH   7  28
ENDBRANCH   3   7
ENDBRANCH   1   5
BRANCH   1  31
ATOM     31  C   ALA A   4      11.303  61.738  42.342  0.00  0.00    +0.241 C 
ATOM     32  N   ALA A   5      10.629  62.842  42.643  0.00  0.00    -0.297 N 
ATOM     33  H   ALA A   5      11.046  63.524  43.308  0.00  0.00    +0.150 HD
ATOM     34  O   ALA A   4      10.869  60.877  41.578  0.00  0.00    -0.273 OA
BRANCH  32  35
ATOM     35  CA  ALA A   5       9.320  63.122  42.065  0.00  0.00    +0.149 C 
ATOM     36  CB  ALA A   5       8.219  62.841  43.078  0.00  0.00    +0.031 C 
BRANCH  35  37
ATOM     37  C   ALA A   5       9.241  64.564  41.579  0.00  0.00    +0.241 C 
ATOM     38  O   ALA A   5       9.697  65.483  42.258  0.00  0.00    -0.273 OA
ATOM     39  N   ILE A   6       8.669  64.758  40.396  0.00  0.00    -0.297 N 
ATOM     40  H   ILE A   6       8.305  63.940  39.867  0.00  0.00    +0.150 HD
BRANCH  39  41
ATOM     41  CA  ILE A   6       8.541  66.093  39.823  0.00  0.00    +0.149 C 
BRANCH  41  42
ATOM     42  C   ILE A   6       7.094  66.387  39.456  0.00  0.00    +0.241 C 
ATOM     43  N   PHE A   7       6.504  67.364  40.137  0.00  0.00    -0.298 N 
ATOM     44  H   PHE A   7       7.031  67.842  40.895  0.00  0.00    +0.150 HD
ATOM     45  O   ILE A   6       6.523  65.740  38.580  0.00  0.00    -0.273 OA
BRANCH  43  46
ATOM     46  CA  PHE A   7       5.138  67.783  39.850  0.00  0.00    +0.141 C 
BRANCH  46  47
ATOM     47  C   PHE A   7       5.151  69.014  38.954  0.00  0.00    +0.227 C 
ATOM     48  O   PHE A   7       5.880  69.970  39.216  0.00  0.00    -0.286 OA
ENDBRANCH  46  47
BRANCH  46  49
ATOM     49  CB  PHE A   7       4.384  68.087  41.148  0.00  0.00    +0.054 C 
BRANCH  49  50
ATOM     50  CG  PHE A   7       4.070  66.869  41.971  0.00  0.00    -0.020 A 
ATOM     51  CD2 PHE A   7       5.066  66.217  42.681  0.00  0.00    -0.004 A 
ATOM     52  CE2 PHE A   7       4.780  65.097  43.440  0.00  0.00    -0.000 A 
ATOM     53  CZ  PHE A   7       3.484  64.620  43.502  0.00  0.00    -0.000 A 
ATOM     54  CE1 PHE A   7       2.480  65.264  42.804  0.00  0.00    -0.000 A 
ATOM     55  CD1 PHE A   7       2.775  66.382  42.044  0.00  0.00    -0.004 A 
ENDBRANCH  49  50
ENDBRANCH  46  49
ENDBRANCH  43  46
ENDBRANCH  41  42
BRANCH  41  56
ATOM     56  CB  ILE A   6       9.418  66.275  38.564  0.00  0.00    +0.027 C 
ATOM     57  CG2 ILE A   6       9.386  67.724  38.098  0.00  0.00    +0.002 C 
BRANCH  56  58
ATOM     58  CG1 ILE A   6      10.857  65.817  38.821  0.00  0.00    +0.002 C 
ATOM     59  CD1 ILE A   6      11.126  64.381  38.405  0.00  0.00    +0.000 C 
ENDBRANCH  56  58
ENDBRANCH  41  56
ENDBRANCH  39  41
ENDBRANCH  35  37
ENDBRANCH  32  35
ENDBRANCH   1  31
TORSDOF 23
REMARK  Name = ../refined-set-2016/4o2b/4o2b_pocket.pdb
REMARK  224 active torsions:
REMARK  status: ('A' for Active; 'I' for Inactive)
REMARK    1  A    between atoms: _1  and  _3
REMARK    2  A    between atoms: _3  and  _4
REMARK    3  A    between atoms: _3  and  _6
REMARK    4  A    between atoms: _6  and  _7
REMARK    5  A    between atoms: _7  and  _8
REMARK    6  A    between atoms: _13  and  _15
REMARK    7  A    between atoms: _15  and  _16
REMARK    8  A    between atoms: _19  and  _21
REMARK    9  A    between atoms: _21  and  _22
REMARK   10  A    between atoms: _21  and  _24
REMARK   11  A    between atoms: _24  and  _25
REMARK   12  A    between atoms: _31  and  _32
REMARK   13  A    between atoms: _37  and  _39
REMARK   14  A    between atoms: _39  and  _40
REMARK   15  A    between atoms: _39  and  _42
REMARK   16  A    between atoms: _45  and  _47
REMARK   17  A    between atoms: _47  and  _48
REMARK   18  A    between atoms: _47  and  _50
REMARK   19  A    between atoms: _50  and  _51
REMARK   20  A    between atoms: _53  and  _55
REMARK   21  A    between atoms: _55  and  _56
REMARK   22  A    between atoms: _55  and  _58
REMARK   23  A    between atoms: _58  and  _59
REMARK   24  A    between atoms: _62  and  _64
REMARK   25  A    between atoms: _64  and  _65
REMARK   26  A    between atoms: _68  and  _70
REMARK   27  A    between atoms: _70  and  _71
REMARK   28  A    between atoms: _70  and  _73
REMARK   29  A    between atoms: _76  and  _78
REMARK   30  A    between atoms: _78  and  _79
REMARK   31  A    between atoms: _78  and  _81
REMARK   32  A    between atoms: _84  and  _86
REMARK   33  A    between atoms: _86  and  _87
REMARK   34  A    between atoms: _86  and  _89
REMARK   35  A    between atoms: _89  and  _90
REMARK   36  A    between atoms: _90  and  _91
REMARK   37  A    between atoms: _94  and  _96
REMARK   38  A    between atoms: _96  and  _97
REMARK   39  A    between atoms: _96  and  _99
REMARK   40  A    between atoms: _99  and  _100
REMARK   41  A    between atoms: _105  and  _106
REMARK   42  A    between atoms: _108  and  _110
REMARK   43  A    between atoms: _110  and  _111
REMARK   44  A    between atoms: _110  and  _113
REMARK   45  A    between atoms: _113  and  _114
REMARK   46  A    between atoms: _120  and  _122
REMARK   47  A    between atoms: _122  and  _123
REMARK   48  A    between atoms: _122  and  _125
REMARK   49  A    between atoms: _125  and  _126
REMARK   50  A    between atoms: _126  and  _127
REMARK   51  A    between atoms: _127  and  _128
REMARK   52  A    between atoms: _137  and  _139
REMARK   53  A    between atoms: _139  and  _140
REMARK   54  A    between atoms: _139  and  _142
REMARK   55  A    between atoms: _142  and  _143
REMARK   56  A    between atoms: _143  and  _144
REMARK   57  A    between atoms: _149  and  _151
REMARK   58  A    between atoms: _151  and  _152
REMARK   59  A    between atoms: _151  and  _154
REMARK   60  A    between atoms: _154  and  _155
REMARK   61  A    between atoms: _155  and  _156
REMARK   62  A    between atoms: _159  and  _161
REMARK   63  A    between atoms: _161  and  _162
REMARK   64  A    between atoms: _161  and  _164
REMARK   65  A    between atoms: _164  and  _165
REMARK   66  A    between atoms: _170  and  _171
REMARK   67  A    between atoms: _173  and  _175
REMARK   68  A    between atoms: _175  and  _176
REMARK   69  A    between atoms: _178  and  _180
REMARK   70  A    between atoms: _180  and  _181
REMARK   71  A    between atoms: _180  and  _183
REMARK   72  A    between atoms: _186  and  _188
REMARK   73  A    between atoms: _188  and  _189
REMARK   74  A    between atoms: _188  and  _191
REMARK   75  A    between atoms: _191  and  _192
REMARK   76  A    between atoms: _195  and  _197
REMARK   77  A    between atoms: _197  and  _198
REMARK   78  A    between atoms: _197  and  _200
REMARK   79  A    between atoms: _200  and  _201
REMARK   80  A    between atoms: _204  and  _206
REMARK   81  A    between atoms: _206  and  _207
REMARK   82  A    between atoms: _206  and  _209
REMARK   83  A    between atoms: _211  and  _213
REMARK   84  A    between atoms: _213  and  _214
REMARK   85  A    between atoms: _213  and  _216
REMARK   86  A    between atoms: _216  and  _217
REMARK   87  A    between atoms: _220  and  _222
REMARK   88  A    between atoms: _222  and  _223
REMARK   89  A    between atoms: _222  and  _225
REMARK   90  A    between atoms: _225  and  _226
REMARK   91  A    between atoms: _226  and  _227
REMARK   92  A    between atoms: _227  and  _228
REMARK   93  A    between atoms: _237  and  _239
REMARK   94  A    between atoms: _239  and  _240
REMARK   95  A    between atoms: _239  and  _242
REMARK   96  A    between atoms: _242  and  _243
REMARK   97  A    between atoms: _249  and  _251
REMARK   98  A    between atoms: _251  and  _252
REMARK   99  A    between atoms: _251  and  _254
REMARK  100  A    between atoms: _254  and  _255
REMARK  101  A    between atoms: _255  and  _256
REMARK  102  A    between atoms: _261  and  _263
REMARK  103  A    between atoms: _263  and  _264
REMARK  104  A    between atoms: _263  and  _266
REMARK  105  A    between atoms: _266  and  _267
REMARK  106  A    between atoms: _270  and  _272
REMARK  107  A    between atoms: _272  and  _273
REMARK  108  A    between atoms: _272  and  _275
REMARK  109  A    between atoms: _275  and  _276
REMARK  110  A    between atoms: _281  and  _283
REMARK  111  A    between atoms: _283  and  _284
REMARK  112  A    between atoms: _287  and  _289
REMARK  113  A    between atoms: _289  and  _290
REMARK  114  A    between atoms: _289  and  _292
REMARK  115  A    between atoms: _292  and  _293
REMARK  116  A    between atoms: _296  and  _298
REMARK  117  A    between atoms: _298  and  _299
REMARK  118  A    between atoms: _298  and  _301
REMARK  119  A    between atoms: _301  and  _302
REMARK  120  A    between atoms: _305  and  _307
REMARK  121  A    between atoms: _307  and  _308
REMARK  122  A    between atoms: _307  and  _310
REMARK  123  A    between atoms: _310  and  _311
REMARK  124  A    between atoms: _311  and  _312
REMARK  125  A    between atoms: _312  and  _313
REMARK  126  A    between atoms: _322  and  _324
REMARK  127  A    between atoms: _324  and  _325
REMARK  128  A    between atoms: _324  and  _327
REMARK  129  A    between atoms: _327  and  _328
REMARK  130  A    between atoms: _328  and  _329
REMARK  131  A    between atoms: _329  and  _330
REMARK  132  A    between atoms: _330  and  _331
REMARK  133  A    between atoms: _335  and  _337
REMARK  134  A    between atoms: _337  and  _338
REMARK  135  A    between atoms: _337  and  _340
REMARK  136  A    between atoms: _340  and  _341
REMARK  137  A    between atoms: _344  and  _346
REMARK  138  A    between atoms: _346  and  _347
REMARK  139  A    between atoms: _350  and  _352
REMARK  140  A    between atoms: _352  and  _353
REMARK  141  A    between atoms: _352  and  _355
REMARK  142  A    between atoms: _358  and  _360
REMARK  143  A    between atoms: _360  and  _361
REMARK  144  A    between atoms: _360  and  _363
REMARK  145  A    between atoms: _363  and  _364
REMARK  146  A    between atoms: _369  and  _371
REMARK  147  A    between atoms: _371  and  _372
REMARK  148  A    between atoms: _371  and  _374
REMARK  149  A    between atoms: _374  and  _375
REMARK  150  A    between atoms: _375  and  _376
REMARK  151  A    between atoms: _378  and  _380
REMARK  152  A    between atoms: _380  and  _381
REMARK  153  A    between atoms: _380  and  _383
REMARK  154  A    between atoms: _386  and  _388
REMARK  155  A    between atoms: _388  and  _389
REMARK  156  A    between atoms: _388  and  _391
REMARK  157  A    between atoms: _391  and  _392
REMARK  158  A    between atoms: _395  and  _397
REMARK  159  A    between atoms: _397  and  _398
REMARK  160  A    between atoms: _397  and  _400
REMARK  161  A    between atoms: _400  and  _401
REMARK  162  A    between atoms: _404  and  _406
REMARK  163  A    between atoms: _406  and  _407
REMARK  164  A    between atoms: _406  and  _409
REMARK  165  A    between atoms: _412  and  _414
REMARK  166  A    between atoms: _414  and  _415
REMARK  167  A    between atoms: _418  and  _420
REMARK  168  A    between atoms: _420  and  _421
REMARK  169  A    between atoms: _424  and  _426
REMARK  170  A    between atoms: _426  and  _427
REMARK  171  A    between atoms: _426  and  _429
REMARK  172  A    between atoms: _429  and  _430
REMARK  173  A    between atoms: _433  and  _435
REMARK  174  A    between atoms: _435  and  _436
REMARK  175  A    between atoms: _435  and  _438
REMARK  176  A    between atoms: _438  and  _439
REMARK  177  A    between atoms: _445  and  _447
REMARK  178  A    between atoms: _447  and  _448
REMARK  179  A    between atoms: _447  and  _450
REMARK  180  A    between atoms: _450  and  _451
REMARK  181  A    between atoms: _455  and  _456
REMARK  182  A    between atoms: _461  and  _463
REMARK  183  A    between atoms: _463  and  _464
REMARK  184  A    between atoms: _463  and  _466
REMARK  185  A    between atoms: _466  and  _467
REMARK  186  A    between atoms: _472  and  _474
REMARK  187  A    between atoms: _474  and  _475
REMARK  188  A    between atoms: _474  and  _477
REMARK  189  A    between atoms: _477  and  _478
REMARK  190  A    between atoms: _483  and  _485
REMARK  191  A    between atoms: _485  and  _486
REMARK  192  A    between atoms: _485  and  _488
REMARK  193  A    between atoms: _491  and  _493
REMARK  194  A    between atoms: _493  and  _494
REMARK  195  A    between atoms: _493  and  _496
REMARK  196  A    between atoms: _496  and  _497
REMARK  197  A    between atoms: _497  and  _498
REMARK  198  A    between atoms: _498  and  _499
REMARK  199  A    between atoms: _499  and  _500
REMARK  200  A    between atoms: _504  and  _506
REMARK  201  A    between atoms: _506  and  _507
REMARK  202  A    between atoms: _506  and  _509
REMARK  203  A    between atoms: _509  and  _510
REMARK  204  A    between atoms: _513  and  _515
REMARK  205  A    between atoms: _515  and  _516
REMARK  206  A    between atoms: _519  and  _521
REMARK  207  A    between atoms: _521  and  _522
REMARK  208  A    between atoms: _521  and  _524
REMARK  209  A    between atoms: _527  and  _529
REMARK  210  A    between atoms: _529  and  _530
REMARK  211  A    between atoms: _529  and  _532
REMARK  212  A    between atoms: _532  and  _533
REMARK  213  A    between atoms: _536  and  _538
REMARK  214  A    between atoms: _538  and  _539
REMARK  215  A    between atoms: _538  and  _541
REMARK  216  A    between atoms: _541  and  _542
REMARK  217  A    between atoms: _548  and  _550
REMARK  218  A    between atoms: _550  and  _551
REMARK  219  A    between atoms: _550  and  _553
REMARK  220  A    between atoms: _553  and  _554
REMARK  221  A    between atoms: _557  and  _559
REMARK  222  A    between atoms: _559  and  _560
REMARK  223  A    between atoms: _559  and  _562
REMARK  224  A    between atoms: _562  and  _563
REMARK                            x       y       z     vdW  Elec       q    Type
REMARK                         _______ _______ _______ _____ _____    ______ ____
ROOT
ATOM      1  CA  VAL A   5      12.176  60.827  48.867  0.00  0.00    +0.149 C 
ENDROOT
BRANCH   1   3
ATOM      2  C   ASN A   4      14.183  59.633  49.557  0.00  0.00    +0.241 C 
ATOM      3  N   VAL A   5      13.177  60.448  49.857  0.00  0.00    -0.297 N 
ATOM      4  H   VAL A   5      13.102  60.825  50.823  0.00  0.00    +0.150 HD
ATOM      5  O   ASN A   4      14.313  59.113  48.448  0.00  0.00    -0.273 OA
BRANCH   2   6
ATOM      6  CA  ASN A   4      15.196  59.358  50.668  0.00  0.00    +0.158 C 
BRANCH   6   8
ATOM      7  C   ASN A   3      14.919  61.028  52.422  0.00  0.00    +0.241 C 
ATOM      8  N   ASN A   4      14.762  59.778  51.999  0.00  0.00    -0.297 N 
ATOM      9  H   ASN A   4      14.319  59.081  52.631  0.00  0.00    +0.150 HD
ATOM     10  O   ASN A   3      15.339  61.931  51.700  0.00  0.00    -0.273 OA
BRANCH   7  11
ATOM     11  CA  ASN A   3      14.549  61.304  53.875  0.00  0.00    +0.158 C 
BRANCH  11  13
ATOM     12  C   PRO A   2      16.473  60.128  54.833  0.00  0.00    +0.241 C 
ATOM     13  N   ASN A   3      15.162  60.356  54.802  0.00  0.00    -0.297 N 
ATOM     14  H   ASN A   3      14.550  59.838  55.464  0.00  0.00    +0.150 HD
ATOM     15  O   PRO A   2      17.275  60.630  54.045  0.00  0.00    -0.273 OA
BRANCH  12  21
ATOM     16  C   ILE A   1      17.685  57.365  54.404  0.00  0.00    +0.241 C 
ATOM     17  N   PRO A   2      17.955  58.216  55.405  0.00  0.00    -0.272 N 
ATOM     18  CD  PRO A   2      19.221  58.269  56.156  0.00  0.00    +0.094 C 
ATOM     19  CG  PRO A   2      18.847  59.026  57.395  0.00  0.00    +0.024 C 
ATOM     20  CB  PRO A   2      17.764  59.957  56.971  0.00  0.00    +0.031 C 
ATOM     21  CA  PRO A   2      16.972  59.177  55.916  0.00  0.00    +0.152 C 
ATOM     22  O   ILE A   1      16.603  57.345  53.819  0.00  0.00    -0.273 OA
BRANCH  16  23
ATOM     23  CA  ILE A   1      18.787  56.384  54.022  0.00  0.00    +0.145 C 
BRANCH  23  24
ATOM     24  N   ILE A   1      18.570  55.134  54.742  0.00  0.00    -0.238 NA
ATOM     25  H   ILE A   1      17.633  54.684  54.702  0.00  0.00    +0.142 HD
ENDBRANCH  23  24
BRANCH  23  26
ATOM     26  CB  ILE A   1      18.791  56.195  52.492  0.00  0.00    +0.025 C 
ATOM     27  CG2 ILE A   1      19.069  57.522  51.794  0.00  0.00    +0.002 C 
BRANCH  26  28
ATOM     28  CG1 ILE A   1      19.832  55.153  52.076  0.00  0.00    +0.002 C 
ATOM     29  CD1 ILE A   1      19.930  54.959  50.579  0.00  0.00    +0.000 C 
ENDBRANCH  26  28
ENDBRANCH  23  26
ENDBRANCH  16  23
ENDBRANCH  12  21
ENDBRANCH  11  13
BRANCH  11  30
ATOM     30  CB  ASN A   3      14.933  62.738  54.252  0.00  0.00    +0.114 C 
BRANCH  30  31
ATOM     31  CG  ASN A   3      14.876  62.982  55.749  0.00  0.00    +0.222 C 
ATOM     32  OD1 ASN A   3      15.900  63.226  56.388  0.00  0.00    -0.275 OA
ATOM     33  ND2 ASN A   3      13.676  62.917  56.316  0.00  0.00    -0.329 N 
ATOM     34 HD21 ASN A   3      13.575  63.075  57.339  0.00  0.00    +0.145 HD
ATOM     35 HD22 ASN A   3      12.838  62.708  55.737  0.00  0.00    +0.145 HD
ENDBRANCH  30  31
ENDBRANCH  11  30
ENDBRANCH   7  11
ENDBRANCH   6   8
BRANCH   6  36
ATOM     36  CB  ASN A   4      15.587  57.876  50.668  0.00  0.00    +0.114 C 
BRANCH  36  37
ATOM     37  CG  ASN A   4      14.478  56.977  51.182  0.00  0.00    +0.222 C 
ATOM     38  OD1 ASN A   4      13.418  57.448  51.596  0.00  0.00    -0.275 OA
ATOM     39  ND2 ASN A   4      14.716  55.671  51.151  0.00  0.00    -0.329 N 
ATOM     40 HD21 ASN A   4      13.993  55.003  51.485  0.00  0.00    +0.145 HD
ATOM     41 HD22 ASN A   4      15.626  55.317  50.793  0.00  0.00    +0.145 HD
ENDBRANCH  36  37
ENDBRANCH   6  36
ENDBRANCH   2   6
ENDBRANCH   1   3
BRANCH   1  42
ATOM     42  C   VAL A   5      12.118  62.342  48.717  0.00  0.00    +0.241 C 
ATOM     43  O   VAL A   5      11.695  63.048  49.634  0.00  0.00    -0.273 OA
ATOM     44  N   LYS A   6      12.545  62.839  47.561  0.00  0.00    -0.297 N 
ATOM     45  H   LYS A   6      12.876  62.191  46.818  0.00  0.00    +0.150 HD
BRANCH  44  46
ATOM     46  CA  LYS A   6      12.558  64.277  47.315  0.00  0.00    +0.149 C 
BRANCH  46  47
ATOM     47  C   LYS A   6      11.602  64.681  46.200  0.00  0.00    +0.241 C 
ATOM     48  N   THR A   7      10.969  65.835  46.377  0.00  0.00    -0.295 N 
ATOM     49  H   THR A   7      11.196  66.411  47.213  0.00  0.00    +0.150 HD
ATOM     50  O   LYS A   6      11.450  63.971  45.203  0.00  0.00    -0.273 OA
BRANCH  48  51
ATOM     51  CA  THR A   7       9.968  66.320  45.439  0.00  0.00    +0.176 C 
BRANCH  51  52
ATOM     52  C   THR A   7      10.329  67.709  44.921  0.00  0.00    +0.243 C 
ATOM     53  O   THR A   7      10.780  68.567  45.682  0.00  0.00    -0.273 OA
ATOM     54  N   ALA A   8      10.140  67.922  43.622  0.00  0.00    -0.297 N 
ATOM     55  H   ALA A   8       9.846  67.130  43.016  0.00  0.00    +0.150 HD
BRANCH  54  56
ATOM     56  CA  ALA A   8      10.334  69.238  43.027  0.00  0.00    +0.149 C 
ATOM     57  CB  ALA A   8      11.512  69.219  42.067  0.00  0.00    +0.031 C 
BRANCH  56  58
ATOM     58  C   ALA A   8       9.059  69.656  42.304  0.00  0.00    +0.241 C 
ATOM     59  N   VAL A   9       8.770  70.954  42.300  0.00  0.00    -0.298 N 
ATOM     60  H   VAL A   9       9.410  71.620  42.778  0.00  0.00    +0.150 HD
ATOM     61  O   ALA A   8       8.344  68.811  41.763  0.00  0.00    -0.273 OA
BRANCH  59  62
ATOM     62  CA  VAL A   9       7.573  71.461  41.638  0.00  0.00    +0.137 C 
BRANCH  62  63
ATOM     63  CB  VAL A   9       6.568  72.053  42.649  0.00  0.00    +0.026 C 
ATOM     64  CG2 VAL A   9       6.228  71.032  43.721  0.00  0.00    +0.002 C 
ATOM     65  CG1 VAL A   9       5.302  72.516  41.938  0.00  0.00    +0.002 C 
ENDBRANCH  62  63
BRANCH  62  66
ATOM     66  C   VAL A   9       7.913  72.521  40.594  0.00  0.00    +0.227 C 
ATOM     67  O   VAL A   9       8.666  73.457  40.867  0.00  0.00    -0.286 OA
ENDBRANCH  62  66
ENDBRANCH  59  62
ENDBRANCH  56  58
ENDBRANCH  54  56
ENDBRANCH  51  52
BRANCH  51  68
ATOM     68  CB  THR A   7       8.578  66.372  46.107  0.00  0.00    +0.137 C 
ATOM     69  CG2 THR A   7       7.530  66.895  45.142  0.00  0.00    +0.034 C 
BRANCH  68  70
ATOM     70  OG1 THR A   7       8.208  65.058  46.541  0.00  0.00    -0.382 OA
ATOM     71  HG1 THR A   7       7.316  65.092  46.969  0.00  0.00    +0.210 HD
ENDBRANCH  68  70
ENDBRANCH  51  68
ENDBRANCH  48  51
ENDBRANCH  46  47
BRANCH  46  72
ATOM     72  CB  LYS A   6      13.974  64.760  46.999  0.00  0.00    +0.029 C 
BRANCH  72  73
ATOM     73  CG  LYS A   6      14.964  64.507  48.120  0.00  0.00    +0.000 C 
BRANCH  73  74
ATOM     74  CD  LYS A   6      14.623  65.290  49.371  0.00  0.00    -0.024 C 
BRANCH  74  75
ATOM     75  CE  LYS A   6      15.536  64.884  50.515  0.00  0.00    -0.086 C 
BRANCH  75  76
ATOM     76  NZ  LYS A   6      15.218  65.627  51.764  0.00  0.00    +0.380 N 
ATOM     77  HZ1 LYS A   6      15.863  65.322  52.521  0.00  0.00    -0.089 HD
ATOM     78  HZ2 LYS A   6      14.236  65.430  52.043  0.00  0.00    -0.089 HD
ATOM     79  HZ3 LYS A   6      15.334  66.647  51.598  0.00  0.00    -0.089 HD
ENDBRANCH  75  76
ENDBRANCH  74  75
ENDBRANCH  73  74
ENDBRANCH  72  73
ENDBRANCH  46  72
ENDBRANCH  44  46
ENDBRANCH   1  42
BRANCH   1  80
ATOM     80  CB  VAL A   5      10.778  60.308  49.251  0.00  0.00    +0.027 C 
ATOM     81  CG2 VAL A   5      10.813  58.805  49.473  0.00  0.00    +0.002 C 
ATOM     82  CG1 VAL A   5       9.761  60.673  48.176  0.00  0.00    +0.002 C 
ENDBRANCH   1  80
TORSDOF 32
REMARK  Name = ../refined-set-2016/4o2b/4o2b_pocket.pdb
REMARK  224 active torsions:
REMARK  status: ('A' for Active; 'I' for Inactive)
REMARK    1  A    between atoms: _1  and  _3
REMARK    2  A    between atoms: _3  and  _4
REMARK    3  A    between atoms: _3  and  _6
REMARK    4  A    between atoms: _6  and  _7
REMARK    5  A    between atoms: _7  and  _8
REMARK    6  A    between atoms: _13  and  _15
REMARK    7  A    between atoms: _15  and  _16
REMARK    8  A    between atoms: _19  and  _21
REMARK    9  A    between atoms: _21  and  _22
REMARK   10  A    between atoms: _21  and  _24
REMARK   11  A    between atoms: _24  and  _25
REMARK   12  A    between atoms: _31  and  _32
REMARK   13  A    between atoms: _37  and  _39
REMARK   14  A    between atoms: _39  and  _40
REMARK   15  A    between atoms: _39  and  _42
REMARK   16  A    between atoms: _45  and  _47
REMARK   17  A    between atoms: _47  and  _48
REMARK   18  A    between atoms: _47  and  _50
REMARK   19  A    between atoms: _50  and  _51
REMARK   20  A    between atoms: _53  and  _55
REMARK   21  A    between atoms: _55  and  _56
REMARK   22  A    between atoms: _55  and  _58
REMARK   23  A    between atoms: _58  and  _59
REMARK   24  A    between atoms: _62  and  _64
REMARK   25  A    between atoms: _64  and  _65
REMARK   26  A    between atoms: _68  and  _70
REMARK   27  A    between atoms: _70  and  _71
REMARK   28  A    between atoms: _70  and  _73
REMARK   29  A    between atoms: _76  and  _78
REMARK   30  A    between atoms: _78  and  _79
REMARK   31  A    between atoms: _78  and  _81
REMARK   32  A    between atoms: _84  and  _86
REMARK   33  A    between atoms: _86  and  _87
REMARK   34  A    between atoms: _86  and  _89
REMARK   35  A    between atoms: _89  and  _90
REMARK   36  A    between atoms: _90  and  _91
REMARK   37  A    between atoms: _94  and  _96
REMARK   38  A    between atoms: _96  and  _97
REMARK   39  A    between atoms: _96  and  _99
REMARK   40  A    between atoms: _99  and  _100
REMARK   41  A    between atoms: _105  and  _106
REMARK   42  A    between atoms: _108  and  _110
REMARK   43  A    between atoms: _110  and  _111
REMARK   44  A    between atoms: _110  and  _113
REMARK   45  A    between atoms: _113  and  _114
REMARK   46  A    between atoms: _120  and  _122
REMARK   47  A    between atoms: _122  and  _123
REMARK   48  A    between atoms: _122  and  _125
REMARK   49  A    between atoms: _125  and  _126
REMARK   50  A    between atoms: _126  and  _127
REMARK   51  A    between atoms: _127  and  _128
REMARK   52  A    between atoms: _137  and  _139
REMARK   53  A    between atoms: _139  and  _140
REMARK   54  A    between atoms: _139  and  _142
REMARK   55  A    between atoms: _142  and  _143
REMARK   56  A    between atoms: _143  and  _144
REMARK   57  A    between atoms: _149  and  _151
REMARK   58  A    between atoms: _151  and  _152
REMARK   59  A    between atoms: _151  and  _154
REMARK   60  A    between atoms: _154  and  _155
REMARK   61  A    between atoms: _155  and  _156
REMARK   62  A    between atoms: _159  and  _161
REMARK   63  A    between atoms: _161  and  _162
REMARK   64  A    between atoms: _161  and  _164
REMARK   65  A    between atoms: _164  and  _165
REMARK   66  A    between atoms: _170  and  _171
REMARK   67  A    between atoms: _173  and  _175
REMARK   68  A    between atoms: _175  and  _176
REMARK   69  A    between atoms: _178  and  _180
REMARK   70  A    between atoms: _180  and  _181
REMARK   71  A    between atoms: _180  and  _183
REMARK   72  A    between atoms: _186  and  _188
REMARK   73  A    between atoms: _188  and  _189
REMARK   74  A    between atoms: _188  and  _191
REMARK   75  A    between atoms: _191  and  _192
REMARK   76  A    between atoms: _195  and  _197
REMARK   77  A    between atoms: _197  and  _198
REMARK   78  A    between atoms: _197  and  _200
REMARK   79  A    between atoms: _200  and  _201
REMARK   80  A    between atoms: _204  and  _206
REMARK   81  A    between atoms: _206  and  _207
REMARK   82  A    between atoms: _206  and  _209
REMARK   83  A    between atoms: _211  and  _213
REMARK   84  A    between atoms: _213  and  _214
REMARK   85  A    between atoms: _213  and  _216
REMARK   86  A    between atoms: _216  and  _217
REMARK   87  A    between atoms: _220  and  _222
REMARK   88  A    between atoms: _222  and  _223
REMARK   89  A    between atoms: _222  and  _225
REMARK   90  A    between atoms: _225  and  _226
REMARK   91  A    between atoms: _226  and  _227
REMARK   92  A    between atoms: _227  and  _228
REMARK   93  A    between atoms: _237  and  _239
REMARK   94  A    between atoms: _239  and  _240
REMARK   95  A    between atoms: _239  and  _242
REMARK   96  A    between atoms: _242  and  _243
REMARK   97  A    between atoms: _249  and  _251
REMARK   98  A    between atoms: _251  and  _252
REMARK   99  A    between atoms: _251  and  _254
REMARK  100  A    between atoms: _254  and  _255
REMARK  101  A    between atoms: _255  and  _256
REMARK  102  A    between atoms: _261  and  _263
REMARK  103  A    between atoms: _263  and  _264
REMARK  104  A    between atoms: _263  and  _266
REMARK  105  A    between atoms: _266  and  _267
REMARK  106  A    between atoms: _270  and  _272
REMARK  107  A    between atoms: _272  and  _273
REMARK  108  A    between atoms: _272  and  _275
REMARK  109  A    between atoms: _275  and  _276
REMARK  110  A    between atoms: _281  and  _283
REMARK  111  A    between atoms: _283  and  _284
REMARK  112  A    between atoms: _287  and  _289
REMARK  113  A    between atoms: _289  and  _290
REMARK  114  A    between atoms: _289  and  _292
REMARK  115  A    between atoms: _292  and  _293
REMARK  116  A    between atoms: _296  and  _298
REMARK  117  A    between atoms: _298  and  _299
REMARK  118  A    between atoms: _298  and  _301
REMARK  119  A    between atoms: _301  and  _302
REMARK  120  A    between atoms: _305  and  _307
REMARK  121  A    between atoms: _307  and  _308
REMARK  122  A    between atoms: _307  and  _310
REMARK  123  A    between atoms: _310  and  _311
REMARK  124  A    between atoms: _311  and  _312
REMARK  125  A    between atoms: _312  and  _313
REMARK  126  A    between atoms: _322  and  _324
REMARK  127  A    between atoms: _324  and  _325
REMARK  128  A    between atoms: _324  and  _327
REMARK  129  A    between atoms: _327  and  _328
REMARK  130  A    between atoms: _328  and  _329
REMARK  131  A    between atoms: _329  and  _330
REMARK  132  A    between atoms: _330  and  _331
REMARK  133  A    between atoms: _335  and  _337
REMARK  134  A    between atoms: _337  and  _338
REMARK  135  A    between atoms: _337  and  _340
REMARK  136  A    between atoms: _340  and  _341
REMARK  137  A    between atoms: _344  and  _346
REMARK  138  A    between atoms: _346  and  _347
REMARK  139  A    between atoms: _350  and  _352
REMARK  140  A    between atoms: _352  and  _353
REMARK  141  A    between atoms: _352  and  _355
REMARK  142  A    between atoms: _358  and  _360
REMARK  143  A    between atoms: _360  and  _361
REMARK  144  A    between atoms: _360  and  _363
REMARK  145  A    between atoms: _363  and  _364
REMARK  146  A    between atoms: _369  and  _371
REMARK  147  A    between atoms: _371  and  _372
REMARK  148  A    between atoms: _371  and  _374
REMARK  149  A    between atoms: _374  and  _375
REMARK  150  A    between atoms: _375  and  _376
REMARK  151  A    between atoms: _378  and  _380
REMARK  152  A    between atoms: _380  and  _381
REMARK  153  A    between atoms: _380  and  _383
REMARK  154  A    between atoms: _386  and  _388
REMARK  155  A    between atoms: _388  and  _389
REMARK  156  A    between atoms: _388  and  _391
REMARK  157  A    between atoms: _391  and  _392
REMARK  158  A    between atoms: _395  and  _397
REMARK  159  A    between atoms: _397  and  _398
REMARK  160  A    between atoms: _397  and  _400
REMARK  161  A    between atoms: _400  and  _401
REMARK  162  A    between atoms: _404  and  _406
REMARK  163  A    between atoms: _406  and  _407
REMARK  164  A    between atoms: _406  and  _409
REMARK  165  A    between atoms: _412  and  _414
REMARK  166  A    between atoms: _414  and  _415
REMARK  167  A    between atoms: _418  and  _420
REMARK  168  A    between atoms: _420  and  _421
REMARK  169  A    between atoms: _424  and  _426
REMARK  170  A    between atoms: _426  and  _427
REMARK  171  A    between atoms: _426  and  _429
REMARK  172  A    between atoms: _429  and  _430
REMARK  173  A    between atoms: _433  and  _435
REMARK  174  A    between atoms: _435  and  _436
REMARK  175  A    between atoms: _435  and  _438
REMARK  176  A    between atoms: _438  and  _439
REMARK  177  A    between atoms: _445  and  _447
REMARK  178  A    between atoms: _447  and  _448
REMARK  179  A    between atoms: _447  and  _450
REMARK  180  A    between atoms: _450  and  _451
REMARK  181  A    between atoms: _455  and  _456
REMARK  182  A    between atoms: _461  and  _463
REMARK  183  A    between atoms: _463  and  _464
REMARK  184  A    between atoms: _463  and  _466
REMARK  185  A    between atoms: _466  and  _467
REMARK  186  A    between atoms: _472  and  _474
REMARK  187  A    between atoms: _474  and  _475
REMARK  188  A    between atoms: _474  and  _477
REMARK  189  A    between atoms: _477  and  _478
REMARK  190  A    between atoms: _483  and  _485
REMARK  191  A    between atoms: _485  and  _486
REMARK  192  A    between atoms: _485  and  _488
REMARK  193  A    between atoms: _491  and  _493
REMARK  194  A    between atoms: _493  and  _494
REMARK  195  A    between atoms: _493  and  _496
REMARK  196  A    between atoms: _496  and  _497
REMARK  197  A    between atoms: _497  and  _498
REMARK  198  A    between atoms: _498  and  _499
REMARK  199  A    between atoms: _499  and  _500
REMARK  200  A    between atoms: _504  and  _506
REMARK  201  A    between atoms: _506  and  _507
REMARK  202  A    between atoms: _506  and  _509
REMARK  203  A    between atoms: _509  and  _510
REMARK  204  A    between atoms: _513  and  _515
REMARK  205  A    between atoms: _515  and  _516
REMARK  206  A    between atoms: _519  and  _521
REMARK  207  A    between atoms: _521  and  _522
REMARK  208  A    between atoms: _521  and  _524
REMARK  209  A    between atoms: _527  and  _529
REMARK  210  A    between atoms: _529  and  _530
REMARK  211  A    between atoms: _529  and  _532
REMARK  212  A    between atoms: _532  and  _533
REMARK  213  A    between atoms: _536  and  _538
REMARK  214  A    between atoms: _538  and  _539
REMARK  215  A    between atoms: _538  and  _541
REMARK  216  A    between atoms: _541  and  _542
REMARK  217  A    between atoms: _548  and  _550
REMARK  218  A    between atoms: _550  and  _551
REMARK  219  A    between atoms: _550  and  _553
REMARK  220  A    between atoms: _553  and  _554
REMARK  221  A    between atoms: _557  and  _559
REMARK  222  A    between atoms: _559  and  _560
REMARK  223  A    between atoms: _559  and  _562
REMARK  224  A    between atoms: _562  and  _563
REMARK                            x       y       z     vdW  Elec       q    Type
REMARK                         _______ _______ _______ _____ _____    ______ ____
ROOT
ATOM      1  CA  PHE A   2       8.298  59.384  39.048  0.00  0.00    +0.153 C 
ENDROOT
BRANCH   1   4
ATOM      2  C   THR A   1       7.594  61.535  38.123  0.00  0.00    +0.241 C 
ATOM      3  O   THR A   1       8.056  62.172  39.070  0.00  0.00    -0.274 OA
ATOM      4  N   PHE A   2       7.692  60.215  38.015  0.00  0.00    -0.297 N 
ATOM      5  H   PHE A   2       7.321  59.756  37.159  0.00  0.00    +0.150 HD
BRANCH   2   6
ATOM      6  CA  THR A   1       6.859  62.241  36.986  0.00  0.00    +0.172 C 
BRANCH   6   7
ATOM      7  N   THR A   1       5.892  63.200  37.506  0.00  0.00    -0.236 NA
ATOM      8  H   THR A   1       6.235  64.036  38.021  0.00  0.00    +0.142 HD
ENDBRANCH   6   7
BRANCH   6   9
ATOM      9  CB  THR A   1       7.875  62.911  36.040  0.00  0.00    +0.135 C 
ATOM     10  CG2 THR A   1       8.915  61.909  35.563  0.00  0.00    +0.034 C 
BRANCH   9  11
ATOM     11  OG1 THR A   1       7.186  63.437  34.901  0.00  0.00    -0.383 OA
ATOM     12  HG1 THR A   1       7.837  63.868  34.293  0.00  0.00    +0.210 HD
ENDBRANCH   9  11
ENDBRANCH   6   9
ENDBRANCH   2   6
ENDBRANCH   1   4
BRANCH   1  13
ATOM     13  C   PHE A   2       9.665  58.867  38.610  0.00  0.00    +0.241 C 
ATOM     14  N   ILE A   3      10.659  59.013  39.482  0.00  0.00    -0.298 N 
ATOM     15  H   ILE A   3      10.497  59.572  40.344  0.00  0.00    +0.150 HD
ATOM     16  O   PHE A   2       9.815  58.352  37.502  0.00  0.00    -0.273 OA
BRANCH  14  17
ATOM     17  CA  ILE A   3      11.969  58.411  39.262  0.00  0.00    +0.137 C 
BRANCH  17  18
ATOM     18  C   ILE A   3      12.370  57.606  40.490  0.00  0.00    +0.227 C 
ATOM     19  O   ILE A   3      12.747  58.172  41.517  0.00  0.00    -0.286 OA
ENDBRANCH  17  18
BRANCH  17  20
ATOM     20  CB  ILE A   3      13.059  59.464  39.002  0.00  0.00    +0.026 C 
ATOM     21  CG2 ILE A   3      14.388  58.785  38.701  0.00  0.00    +0.002 C 
BRANCH  20  22
ATOM     22  CG1 ILE A   3      12.659  60.392  37.854  0.00  0.00    +0.002 C 
ATOM     23  CD1 ILE A   3      13.632  61.533  37.642  0.00  0.00    +0.000 C 
ENDBRANCH  20  22
ENDBRANCH  17  20
ENDBRANCH  14  17
ENDBRANCH   1  13
BRANCH   1  24
ATOM     24  CB  PHE A   2       7.373  58.202  39.352  0.00  0.00    +0.055 C 
BRANCH  24  25
ATOM     25  CG  PHE A   2       7.883  57.282  40.424  0.00  0.00    -0.020 A 
ATOM     26  CD2 PHE A   2       7.625  57.543  41.759  0.00  0.00    -0.004 A 
ATOM     27  CE2 PHE A   2       8.084  56.694  42.748  0.00  0.00    -0.000 A 
ATOM     28  CZ  PHE A   2       8.804  55.566  42.407  0.00  0.00    -0.000 A 
ATOM     29  CE1 PHE A   2       9.063  55.290  41.079  0.00  0.00    -0.000 A 
ATOM     30  CD1 PHE A   2       8.602  56.143  40.096  0.00  0.00    -0.004 A 
ENDBRANCH  24  25
ENDBRANCH   1  24
TORSDOF 12
REMARK  Name = ../refined-set-2016/4o2b/4o2b_pocket.pdb
REMARK  224 active torsions:
REMARK  status: ('A' for Active; 'I' for Inactive)
REMARK    1  A    between atoms: _1  and  _3
REMARK    2  A    between atoms: _3  and  _4
REMARK    3  A    between atoms: _3  and  _6
REMARK    4  A    between atoms: _6  and  _7
REMARK    5  A    between atoms: _7  and  _8
REMARK    6  A    between atoms: _13  and  _15
REMARK    7  A    between atoms: _15  and  _16
REMARK    8  A    between atoms: _19  and  _21
REMARK    9  A    between atoms: _21  and  _22
REMARK   10  A    between atoms: _21  and  _24
REMARK   11  A    between atoms: _24  and  _25
REMARK   12  A    between atoms: _31  and  _32
REMARK   13  A    between atoms: _37  and  _39
REMARK   14  A    between atoms: _39  and  _40
REMARK   15  A    between atoms: _39  and  _42
REMARK   16  A    between atoms: _45  and  _47
REMARK   17  A    between atoms: _47  and  _48
REMARK   18  A    between atoms: _47  and  _50
REMARK   19  A    between atoms: _50  and  _51
REMARK   20  A    between atoms: _53  and  _55
REMARK   21  A    between atoms: _55  and  _56
REMARK   22  A    between atoms: _55  and  _58
REMARK   23  A    between atoms: _58  and  _59
REMARK   24  A    between atoms: _62  and  _64
REMARK   25  A    between atoms: _64  and  _65
REMARK   26  A    between atoms: _68  and  _70
REMARK   27  A    between atoms: _70  and  _71
REMARK   28  A    between atoms: _70  and  _73
REMARK   29  A    between atoms: _76  and  _78
REMARK   30  A    between atoms: _78  and  _79
REMARK   31  A    between atoms: _78  and  _81
REMARK   32  A    between atoms: _84  and  _86
REMARK   33  A    between atoms: _86  and  _87
REMARK   34  A    between atoms: _86  and  _89
REMARK   35  A    between atoms: _89  and  _90
REMARK   36  A    between atoms: _90  and  _91
REMARK   37  A    between atoms: _94  and  _96
REMARK   38  A    between atoms: _96  and  _97
REMARK   39  A    between atoms: _96  and  _99
REMARK   40  A    between atoms: _99  and  _100
REMARK   41  A    between atoms: _105  and  _106
REMARK   42  A    between atoms: _108  and  _110
REMARK   43  A    between atoms: _110  and  _111
REMARK   44  A    between atoms: _110  and  _113
REMARK   45  A    between atoms: _113  and  _114
REMARK   46  A    between atoms: _120  and  _122
REMARK   47  A    between atoms: _122  and  _123
REMARK   48  A    between atoms: _122  and  _125
REMARK   49  A    between atoms: _125  and  _126
REMARK   50  A    between atoms: _126  and  _127
REMARK   51  A    between atoms: _127  and  _128
REMARK   52  A    between atoms: _137  and  _139
REMARK   53  A    between atoms: _139  and  _140
REMARK   54  A    between atoms: _139  and  _142
REMARK   55  A    between atoms: _142  and  _143
REMARK   56  A    between atoms: _143  and  _144
REMARK   57  A    between atoms: _149  and  _151
REMARK   58  A    between atoms: _151  and  _152
REMARK   59  A    between atoms: _151  and  _154
REMARK   60  A    between atoms: _154  and  _155
REMARK   61  A    between atoms: _155  and  _156
REMARK   62  A    between atoms: _159  and  _161
REMARK   63  A    between atoms: _161  and  _162
REMARK   64  A    between atoms: _161  and  _164
REMARK   65  A    between atoms: _164  and  _165
REMARK   66  A    between atoms: _170  and  _171
REMARK   67  A    between atoms: _173  and  _175
REMARK   68  A    between atoms: _175  and  _176
REMARK   69  A    between atoms: _178  and  _180
REMARK   70  A    between atoms: _180  and  _181
REMARK   71  A    between atoms: _180  and  _183
REMARK   72  A    between atoms: _186  and  _188
REMARK   73  A    between atoms: _188  and  _189
REMARK   74  A    between atoms: _188  and  _191
REMARK   75  A    between atoms: _191  and  _192
REMARK   76  A    between atoms: _195  and  _197
REMARK   77  A    between atoms: _197  and  _198
REMARK   78  A    between atoms: _197  and  _200
REMARK   79  A    between atoms: _200  and  _201
REMARK   80  A    between atoms: _204  and  _206
REMARK   81  A    between atoms: _206  and  _207
REMARK   82  A    between atoms: _206  and  _209
REMARK   83  A    between atoms: _211  and  _213
REMARK   84  A    between atoms: _213  and  _214
REMARK   85  A    between atoms: _213  and  _216
REMARK   86  A    between atoms: _216  and  _217
REMARK   87  A    between atoms: _220  and  _222
REMARK   88  A    between atoms: _222  and  _223
REMARK   89  A    between atoms: _222  and  _225
REMARK   90  A    between atoms: _225  and  _226
REMARK   91  A    between atoms: _226  and  _227
REMARK   92  A    between atoms: _227  and  _228
REMARK   93  A    between atoms: _237  and  _239
REMARK   94  A    between atoms: _239  and  _240
REMARK   95  A    between atoms: _239  and  _242
REMARK   96  A    between atoms: _242  and  _243
REMARK   97  A    between atoms: _249  and  _251
REMARK   98  A    between atoms: _251  and  _252
REMARK   99  A    between atoms: _251  and  _254
REMARK  100  A    between atoms: _254  and  _255
REMARK  101  A    between atoms: _255  and  _256
REMARK  102  A    between atoms: _261  and  _263
REMARK  103  A    between atoms: _263  and  _264
REMARK  104  A    between atoms: _263  and  _266
REMARK  105  A    between atoms: _266  and  _267
REMARK  106  A    between atoms: _270  and  _272
REMARK  107  A    between atoms: _272  and  _273
REMARK  108  A    between atoms: _272  and  _275
REMARK  109  A    between atoms: _275  and  _276
REMARK  110  A    between atoms: _281  and  _283
REMARK  111  A    between atoms: _283  and  _284
REMARK  112  A    between atoms: _287  and  _289
REMARK  113  A    between atoms: _289  and  _290
REMARK  114  A    between atoms: _289  and  _292
REMARK  115  A    between atoms: _292  and  _293
REMARK  116  A    between atoms: _296  and  _298
REMARK  117  A    between atoms: _298  and  _299
REMARK  118  A    between atoms: _298  and  _301
REMARK  119  A    between atoms: _301  and  _302
REMARK  120  A    between atoms: _305  and  _307
REMARK  121  A    between atoms: _307  and  _308
REMARK  122  A    between atoms: _307  and  _310
REMARK  123  A    between atoms: _310  and  _311
REMARK  124  A    between atoms: _311  and  _312
REMARK  125  A    between atoms: _312  and  _313
REMARK  126  A    between atoms: _322  and  _324
REMARK  127  A    between atoms: _324  and  _325
REMARK  128  A    between atoms: _324  and  _327
REMARK  129  A    between atoms: _327  and  _328
REMARK  130  A    between atoms: _328  and  _329
REMARK  131  A    between atoms: _329  and  _330
REMARK  132  A    between atoms: _330  and  _331
REMARK  133  A    between atoms: _335  and  _337
REMARK  134  A    between atoms: _337  and  _338
REMARK  135  A    between atoms: _337  and  _340
REMARK  136  A    between atoms: _340  and  _341
REMARK  137  A    between atoms: _344  and  _346
REMARK  138  A    between atoms: _346  and  _347
REMARK  139  A    between atoms: _350  and  _352
REMARK  140  A    between atoms: _352  and  _353
REMARK  141  A    between atoms: _352  and  _355
REMARK  142  A    between atoms: _358  and  _360
REMARK  143  A    between atoms: _360  and  _361
REMARK  144  A    between atoms: _360  and  _363
REMARK  145  A    between atoms: _363  and  _364
REMARK  146  A    between atoms: _369  and  _371
REMARK  147  A    between atoms: _371  and  _372
REMARK  148  A    between atoms: _371  and  _374
REMARK  149  A    between atoms: _374  and  _375
REMARK  150  A    between atoms: _375  and  _376
REMARK  151  A    between atoms: _378  and  _380
REMARK  152  A    between atoms: _380  and  _381
REMARK  153  A    between atoms: _380  and  _383
REMARK  154  A    between atoms: _386  and  _388
REMARK  155  A    between atoms: _388  and  _389
REMARK  156  A    between atoms: _388  and  _391
REMARK  157  A    between atoms: _391  and  _392
REMARK  158  A    between atoms: _395  and  _397
REMARK  159  A    between atoms: _397  and  _398
REMARK  160  A    between atoms: _397  and  _400
REMARK  161  A    between atoms: _400  and  _401
REMARK  162  A    between atoms: _404  and  _406
REMARK  163  A    between atoms: _406  and  _407
REMARK  164  A    between atoms: _406  and  _409
REMARK  165  A    between atoms: _412  and  _414
REMARK  166  A    between atoms: _414  and  _415
REMARK  167  A    between atoms: _418  and  _420
REMARK  168  A    between atoms: _420  and  _421
REMARK  169  A    between atoms: _424  and  _426
REMARK  170  A    between atoms: _426  and  _427
REMARK  171  A    between atoms: _426  and  _429
REMARK  172  A    between atoms: _429  and  _430
REMARK  173  A    between atoms: _433  and  _435
REMARK  174  A    between atoms: _435  and  _436
REMARK  175  A    between atoms: _435  and  _438
REMARK  176  A    between atoms: _438  and  _439
REMARK  177  A    between atoms: _445  and  _447
REMARK  178  A    between atoms: _447  and  _448
REMARK  179  A    between atoms: _447  and  _450
REMARK  180  A    between atoms: _450  and  _451
REMARK  181  A    between atoms: _455  and  _456
REMARK  182  A    between atoms: _461  and  _463
REMARK  183  A    between atoms: _463  and  _464
REMARK  184  A    between atoms: _463  and  _466
REMARK  185  A    between atoms: _466  and  _467
REMARK  186  A    between atoms: _472  and  _474
REMARK  187  A    between atoms: _474  and  _475
REMARK  188  A    between atoms: _474  and  _477
REMARK  189  A    between atoms: _477  and  _478
REMARK  190  A    between atoms: _483  and  _485
REMARK  191  A    between atoms: _485  and  _486
REMARK  192  A    between atoms: _485  and  _488
REMARK  193  A    between atoms: _491  and  _493
REMARK  194  A    between atoms: _493  and  _494
REMARK  195  A    between atoms: _493  and  _496
REMARK  196  A    between atoms: _496  and  _497
REMARK  197  A    between atoms: _497  and  _498
REMARK  198  A    between atoms: _498  and  _499
REMARK  199  A    between atoms: _499  and  _500
REMARK  200  A    between atoms: _504  and  _506
REMARK  201  A    between atoms: _506  and  _507
REMARK  202  A    between atoms: _506  and  _509
REMARK  203  A    between atoms: _509  and  _510
REMARK  204  A    between atoms: _513  and  _515
REMARK  205  A    between atoms: _515  and  _516
REMARK  206  A    between atoms: _519  and  _521
REMARK  207  A    between atoms: _521  and  _522
REMARK  208  A    between atoms: _521  and  _524
REMARK  209  A    between atoms: _527  and  _529
REMARK  210  A    between atoms: _529  and  _530
REMARK  211  A    between atoms: _529  and  _532
REMARK  212  A    between atoms: _532  and  _533
REMARK  213  A    between atoms: _536  and  _538
REMARK  214  A    between atoms: _538  and  _539
REMARK  215  A    between atoms: _538  and  _541
REMARK  216  A    between atoms: _541  and  _542
REMARK  217  A    between atoms: _548  and  _550
REMARK  218  A    between atoms: _550  and  _551
REMARK  219  A    between atoms: _550  and  _553
REMARK  220  A    between atoms: _553  and  _554
REMARK  221  A    between atoms: _557  and  _559
REMARK  222  A    between atoms: _559  and  _560
REMARK  223  A    between atoms: _559  and  _562
REMARK  224  A    between atoms: _562  and  _563
REMARK                            x       y       z     vdW  Elec       q    Type
REMARK                         _______ _______ _______ _____ _____    ______ ____
ROOT
ATOM      1  CB  ASN A   1      17.086  54.271  42.857  0.00  0.00    +0.110 C 
ENDROOT
BRANCH   1   2
ATOM      2  CG  ASN A   1      18.300  53.375  42.679  0.00  0.00    +0.221 C 
ATOM      3  ND2 ASN A   1      19.487  53.969  42.743  0.00  0.00    -0.329 N 
ATOM      4 HD21 ASN A   1      19.547  54.995  42.905  0.00  0.00    +0.145 HD
ATOM      5 HD22 ASN A   1      20.356  53.408  42.632  0.00  0.00    +0.145 HD
ATOM      6  OD1 ASN A   1      18.175  52.166  42.490  0.00  0.00    -0.275 OA
ENDBRANCH   1   2
BRANCH   1   7
ATOM      7  CA  ASN A   1      15.789  53.612  42.382  0.00  0.00    +0.142 C 
BRANCH   7   8
ATOM      8  N   ASN A   1      14.707  54.581  42.316  0.00  0.00    -0.239 NA
ATOM      9  H   ASN A   1      14.628  55.307  43.057  0.00  0.00    +0.142 HD
ENDBRANCH   7   8
BRANCH   7  10
ATOM     10  C   ASN A   1      15.363  52.506  43.337  0.00  0.00    +0.225 C 
ATOM     11  O   ASN A   1      15.612  52.578  44.541  0.00  0.00    -0.287 OA
ENDBRANCH   7  10
ENDBRANCH   1   7
TORSDOF 4
REMARK  Name = ../refined-set-2016/4o2b/4o2b_pocket.pdb
REMARK  224 active torsions:
REMARK  status: ('A' for Active; 'I' for Inactive)
REMARK    1  A    between atoms: _1  and  _3
REMARK    2  A    between atoms: _3  and  _4
REMARK    3  A    between atoms: _3  and  _6
REMARK    4  A    between atoms: _6  and  _7
REMARK    5  A    between atoms: _7  and  _8
REMARK    6  A    between atoms: _13  and  _15
REMARK    7  A    between atoms: _15  and  _16
REMARK    8  A    between atoms: _19  and  _21
REMARK    9  A    between atoms: _21  and  _22
REMARK   10  A    between atoms: _21  and  _24
REMARK   11  A    between atoms: _24  and  _25
REMARK   12  A    between atoms: _31  and  _32
REMARK   13  A    between atoms: _37  and  _39
REMARK   14  A    between atoms: _39  and  _40
REMARK   15  A    between atoms: _39  and  _42
REMARK   16  A    between atoms: _45  and  _47
REMARK   17  A    between atoms: _47  and  _48
REMARK   18  A    between atoms: _47  and  _50
REMARK   19  A    between atoms: _50  and  _51
REMARK   20  A    between atoms: _53  and  _55
REMARK   21  A    between atoms: _55  and  _56
REMARK   22  A    between atoms: _55  and  _58
REMARK   23  A    between atoms: _58  and  _59
REMARK   24  A    between atoms: _62  and  _64
REMARK   25  A    between atoms: _64  and  _65
REMARK   26  A    between atoms: _68  and  _70
REMARK   27  A    between atoms: _70  and  _71
REMARK   28  A    between atoms: _70  and  _73
REMARK   29  A    between atoms: _76  and  _78
REMARK   30  A    between atoms: _78  and  _79
REMARK   31  A    between atoms: _78  and  _81
REMARK   32  A    between atoms: _84  and  _86
REMARK   33  A    between atoms: _86  and  _87
REMARK   34  A    between atoms: _86  and  _89
REMARK   35  A    between atoms: _89  and  _90
REMARK   36  A    between atoms: _90  and  _91
REMARK   37  A    between atoms: _94  and  _96
REMARK   38  A    between atoms: _96  and  _97
REMARK   39  A    between atoms: _96  and  _99
REMARK   40  A    between atoms: _99  and  _100
REMARK   41  A    between atoms: _105  and  _106
REMARK   42  A    between atoms: _108  and  _110
REMARK   43  A    between atoms: _110  and  _111
REMARK   44  A    between atoms: _110  and  _113
REMARK   45  A    between atoms: _113  and  _114
REMARK   46  A    between atoms: _120  and  _122
REMARK   47  A    between atoms: _122  and  _123
REMARK   48  A    between atoms: _122  and  _125
REMARK   49  A    between atoms: _125  and  _126
REMARK   50  A    between atoms: _126  and  _127
REMARK   51  A    between atoms: _127  and  _128
REMARK   52  A    between atoms: _137  and  _139
REMARK   53  A    between atoms: _139  and  _140
REMARK   54  A    between atoms: _139  and  _142
REMARK   55  A    between atoms: _142  and  _143
REMARK   56  A    between atoms: _143  and  _144
REMARK   57  A    between atoms: _149  and  _151
REMARK   58  A    between atoms: _151  and  _152
REMARK   59  A    between atoms: _151  and  _154
REMARK   60  A    between atoms: _154  and  _155
REMARK   61  A    between atoms: _155  and  _156
REMARK   62  A    between atoms: _159  and  _161
REMARK   63  A    between atoms: _161  and  _162
REMARK   64  A    between atoms: _161  and  _164
REMARK   65  A    between atoms: _164  and  _165
REMARK   66  A    between atoms: _170  and  _171
REMARK   67  A    between atoms: _173  and  _175
REMARK   68  A    between atoms: _175  and  _176
REMARK   69  A    between atoms: _178  and  _180
REMARK   70  A    between atoms: _180  and  _181
REMARK   71  A    between atoms: _180  and  _183
REMARK   72  A    between atoms: _186  and  _188
REMARK   73  A    between atoms: _188  and  _189
REMARK   74  A    between atoms: _188  and  _191
REMARK   75  A    between atoms: _191  and  _192
REMARK   76  A    between atoms: _195  and  _197
REMARK   77  A    between atoms: _197  and  _198
REMARK   78  A    between atoms: _197  and  _200
REMARK   79  A    between atoms: _200  and  _201
REMARK   80  A    between atoms: _204  and  _206
REMARK   81  A    between atoms: _206  and  _207
REMARK   82  A    between atoms: _206  and  _209
REMARK   83  A    between atoms: _211  and  _213
REMARK   84  A    between atoms: _213  and  _214
REMARK   85  A    between atoms: _213  and  _216
REMARK   86  A    between atoms: _216  and  _217
REMARK   87  A    between atoms: _220  and  _222
REMARK   88  A    between atoms: _222  and  _223
REMARK   89  A    between atoms: _222  and  _225
REMARK   90  A    between atoms: _225  and  _226
REMARK   91  A    between atoms: _226  and  _227
REMARK   92  A    between atoms: _227  and  _228
REMARK   93  A    between atoms: _237  and  _239
REMARK   94  A    between atoms: _239  and  _240
REMARK   95  A    between atoms: _239  and  _242
REMARK   96  A    between atoms: _242  and  _243
REMARK   97  A    between atoms: _249  and  _251
REMARK   98  A    between atoms: _251  and  _252
REMARK   99  A    between atoms: _251  and  _254
REMARK  100  A    between atoms: _254  and  _255
REMARK  101  A    between atoms: _255  and  _256
REMARK  102  A    between atoms: _261  and  _263
REMARK  103  A    between atoms: _263  and  _264
REMARK  104  A    between atoms: _263  and  _266
REMARK  105  A    between atoms: _266  and  _267
REMARK  106  A    between atoms: _270  and  _272
REMARK  107  A    between atoms: _272  and  _273
REMARK  108  A    between atoms: _272  and  _275
REMARK  109  A    between atoms: _275  and  _276
REMARK  110  A    between atoms: _281  and  _283
REMARK  111  A    between atoms: _283  and  _284
REMARK  112  A    between atoms: _287  and  _289
REMARK  113  A    between atoms: _289  and  _290
REMARK  114  A    between atoms: _289  and  _292
REMARK  115  A    between atoms: _292  and  _293
REMARK  116  A    between atoms: _296  and  _298
REMARK  117  A    between atoms: _298  and  _299
REMARK  118  A    between atoms: _298  and  _301
REMARK  119  A    between atoms: _301  and  _302
REMARK  120  A    between atoms: _305  and  _307
REMARK  121  A    between atoms: _307  and  _308
REMARK  122  A    between atoms: _307  and  _310
REMARK  123  A    between atoms: _310  and  _311
REMARK  124  A    between atoms: _311  and  _312
REMARK  125  A    between atoms: _312  and  _313
REMARK  126  A    between atoms: _322  and  _324
REMARK  127  A    between atoms: _324  and  _325
REMARK  128  A    between atoms: _324  and  _327
REMARK  129  A    between atoms: _327  and  _328
REMARK  130  A    between atoms: _328  and  _329
REMARK  131  A    between atoms: _329  and  _330
REMARK  132  A    between atoms: _330  and  _331
REMARK  133  A    between atoms: _335  and  _337
REMARK  134  A    between atoms: _337  and  _338
REMARK  135  A    between atoms: _337  and  _340
REMARK  136  A    between atoms: _340  and  _341
REMARK  137  A    between atoms: _344  and  _346
REMARK  138  A    between atoms: _346  and  _347
REMARK  139  A    between atoms: _350  and  _352
REMARK  140  A    between atoms: _352  and  _353
REMARK  141  A    between atoms: _352  and  _355
REMARK  142  A    between atoms: _358  and  _360
REMARK  143  A    between atoms: _360  and  _361
REMARK  144  A    between atoms: _360  and  _363
REMARK  145  A    between atoms: _363  and  _364
REMARK  146  A    between atoms: _369  and  _371
REMARK  147  A    between atoms: _371  and  _372
REMARK  148  A    between atoms: _371  and  _374
REMARK  149  A    between atoms: _374  and  _375
REMARK  150  A    between atoms: _375  and  _376
REMARK  151  A    between atoms: _378  and  _380
REMARK  152  A    between atoms: _380  and  _381
REMARK  153  A    between atoms: _380  and  _383
REMARK  154  A    between atoms: _386  and  _388
REMARK  155  A    between atoms: _388  and  _389
REMARK  156  A    between atoms: _388  and  _391
REMARK  157  A    between atoms: _391  and  _392
REMARK  158  A    between atoms: _395  and  _397
REMARK  159  A    between atoms: _397  and  _398
REMARK  160  A    between atoms: _397  and  _400
REMARK  161  A    between atoms: _400  and  _401
REMARK  162  A    between atoms: _404  and  _406
REMARK  163  A    between atoms: _406  and  _407
REMARK  164  A    between atoms: _406  and  _409
REMARK  165  A    between atoms: _412  and  _414
REMARK  166  A    between atoms: _414  and  _415
REMARK  167  A    between atoms: _418  and  _420
REMARK  168  A    between atoms: _420  and  _421
REMARK  169  A    between atoms: _424  and  _426
REMARK  170  A    between atoms: _426  and  _427
REMARK  171  A    between atoms: _426  and  _429
REMARK  172  A    between atoms: _429  and  _430
REMARK  173  A    between atoms: _433  and  _435
REMARK  174  A    between atoms: _435  and  _436
REMARK  175  A    between atoms: _435  and  _438
REMARK  176  A    between atoms: _438  and  _439
REMARK  177  A    between atoms: _445  and  _447
REMARK  178  A    between atoms: _447  and  _448
REMARK  179  A    between atoms: _447  and  _450
REMARK  180  A    between atoms: _450  and  _451
REMARK  181  A    between atoms: _455  and  _456
REMARK  182  A    between atoms: _461  and  _463
REMARK  183  A    between atoms: _463  and  _464
REMARK  184  A    between atoms: _463  and  _466
REMARK  185  A    between atoms: _466  and  _467
REMARK  186  A    between atoms: _472  and  _474
REMARK  187  A    between atoms: _474  and  _475
REMARK  188  A    between atoms: _474  and  _477
REMARK  189  A    between atoms: _477  and  _478
REMARK  190  A    between atoms: _483  and  _485
REMARK  191  A    between atoms: _485  and  _486
REMARK  192  A    between atoms: _485  and  _488
REMARK  193  A    between atoms: _491  and  _493
REMARK  194  A    between atoms: _493  and  _494
REMARK  195  A    between atoms: _493  and  _496
REMARK  196  A    between atoms: _496  and  _497
REMARK  197  A    between atoms: _497  and  _498
REMARK  198  A    between atoms: _498  and  _499
REMARK  199  A    between atoms: _499  and  _500
REMARK  200  A    between atoms: _504  and  _506
REMARK  201  A    between atoms: _506  and  _507
REMARK  202  A    between atoms: _506  and  _509
REMARK  203  A    between atoms: _509  and  _510
REMARK  204  A    between atoms: _513  and  _515
REMARK  205  A    between atoms: _515  and  _516
REMARK  206  A    between atoms: _519  and  _521
REMARK  207  A    between atoms: _521  and  _522
REMARK  208  A    between atoms: _521  and  _524
REMARK  209  A    between atoms: _527  and  _529
REMARK  210  A    between atoms: _529  and  _530
REMARK  211  A    between atoms: _529  and  _532
REMARK  212  A    between atoms: _532  and  _533
REMARK  213  A    between atoms: _536  and  _538
REMARK  214  A    between atoms: _538  and  _539
REMARK  215  A    between atoms: _538  and  _541
REMARK  216  A    between atoms: _541  and  _542
REMARK  217  A    between atoms: _548  and  _550
REMARK  218  A    between atoms: _550  and  _551
REMARK  219  A    between atoms: _550  and  _553
REMARK  220  A    between atoms: _553  and  _554
REMARK  221  A    between atoms: _557  and  _559
REMARK  222  A    between atoms: _559  and  _560
REMARK  223  A    between atoms: _559  and  _562
REMARK  224  A    between atoms: _562  and  _563
REMARK                            x       y       z     vdW  Elec       q    Type
REMARK                         _______ _______ _______ _____ _____    ______ ____
ROOT
ATOM      1  O   HOH     1      20.448  69.697  46.596  0.00  0.00    +0.000 OA
ENDROOT
TORSDOF 0
REMARK  Name = ../refined-set-2016/4o2b/4o2b_pocket.pdb
REMARK  224 active torsions:
REMARK  status: ('A' for Active; 'I' for Inactive)
REMARK    1  A    between atoms: _1  and  _3
REMARK    2  A    between atoms: _3  and  _4
REMARK    3  A    between atoms: _3  and  _6
REMARK    4  A    between atoms: _6  and  _7
REMARK    5  A    between atoms: _7  and  _8
REMARK    6  A    between atoms: _13  and  _15
REMARK    7  A    between atoms: _15  and  _16
REMARK    8  A    between atoms: _19  and  _21
REMARK    9  A    between atoms: _21  and  _22
REMARK   10  A    between atoms: _21  and  _24
REMARK   11  A    between atoms: _24  and  _25
REMARK   12  A    between atoms: _31  and  _32
REMARK   13  A    between atoms: _37  and  _39
REMARK   14  A    between atoms: _39  and  _40
REMARK   15  A    between atoms: _39  and  _42
REMARK   16  A    between atoms: _45  and  _47
REMARK   17  A    between atoms: _47  and  _48
REMARK   18  A    between atoms: _47  and  _50
REMARK   19  A    between atoms: _50  and  _51
REMARK   20  A    between atoms: _53  and  _55
REMARK   21  A    between atoms: _55  and  _56
REMARK   22  A    between atoms: _55  and  _58
REMARK   23  A    between atoms: _58  and  _59
REMARK   24  A    between atoms: _62  and  _64
REMARK   25  A    between atoms: _64  and  _65
REMARK   26  A    between atoms: _68  and  _70
REMARK   27  A    between atoms: _70  and  _71
REMARK   28  A    between atoms: _70  and  _73
REMARK   29  A    between atoms: _76  and  _78
REMARK   30  A    between atoms: _78  and  _79
REMARK   31  A    between atoms: _78  and  _81
REMARK   32  A    between atoms: _84  and  _86
REMARK   33  A    between atoms: _86  and  _87
REMARK   34  A    between atoms: _86  and  _89
REMARK   35  A    between atoms: _89  and  _90
REMARK   36  A    between atoms: _90  and  _91
REMARK   37  A    between atoms: _94  and  _96
REMARK   38  A    between atoms: _96  and  _97
REMARK   39  A    between atoms: _96  and  _99
REMARK   40  A    between atoms: _99  and  _100
REMARK   41  A    between atoms: _105  and  _106
REMARK   42  A    between atoms: _108  and  _110
REMARK   43  A    between atoms: _110  and  _111
REMARK   44  A    between atoms: _110  and  _113
REMARK   45  A    between atoms: _113  and  _114
REMARK   46  A    between atoms: _120  and  _122
REMARK   47  A    between atoms: _122  and  _123
REMARK   48  A    between atoms: _122  and  _125
REMARK   49  A    between atoms: _125  and  _126
REMARK   50  A    between atoms: _126  and  _127
REMARK   51  A    between atoms: _127  and  _128
REMARK   52  A    between atoms: _137  and  _139
REMARK   53  A    between atoms: _139  and  _140
REMARK   54  A    between atoms: _139  and  _142
REMARK   55  A    between atoms: _142  and  _143
REMARK   56  A    between atoms: _143  and  _144
REMARK   57  A    between atoms: _149  and  _151
REMARK   58  A    between atoms: _151  and  _152
REMARK   59  A    between atoms: _151  and  _154
REMARK   60  A    between atoms: _154  and  _155
REMARK   61  A    between atoms: _155  and  _156
REMARK   62  A    between atoms: _159  and  _161
REMARK   63  A    between atoms: _161  and  _162
REMARK   64  A    between atoms: _161  and  _164
REMARK   65  A    between atoms: _164  and  _165
REMARK   66  A    between atoms: _170  and  _171
REMARK   67  A    between atoms: _173  and  _175
REMARK   68  A    between atoms: _175  and  _176
REMARK   69  A    between atoms: _178  and  _180
REMARK   70  A    between atoms: _180  and  _181
REMARK   71  A    between atoms: _180  and  _183
REMARK   72  A    between atoms: _186  and  _188
REMARK   73  A    between atoms: _188  and  _189
REMARK   74  A    between atoms: _188  and  _191
REMARK   75  A    between atoms: _191  and  _192
REMARK   76  A    between atoms: _195  and  _197
REMARK   77  A    between atoms: _197  and  _198
REMARK   78  A    between atoms: _197  and  _200
REMARK   79  A    between atoms: _200  and  _201
REMARK   80  A    between atoms: _204  and  _206
REMARK   81  A    between atoms: _206  and  _207
REMARK   82  A    between atoms: _206  and  _209
REMARK   83  A    between atoms: _211  and  _213
REMARK   84  A    between atoms: _213  and  _214
REMARK   85  A    between atoms: _213  and  _216
REMARK   86  A    between atoms: _216  and  _217
REMARK   87  A    between atoms: _220  and  _222
REMARK   88  A    between atoms: _222  and  _223
REMARK   89  A    between atoms: _222  and  _225
REMARK   90  A    between atoms: _225  and  _226
REMARK   91  A    between atoms: _226  and  _227
REMARK   92  A    between atoms: _227  and  _228
REMARK   93  A    between atoms: _237  and  _239
REMARK   94  A    between atoms: _239  and  _240
REMARK   95  A    between atoms: _239  and  _242
REMARK   96  A    between atoms: _242  and  _243
REMARK   97  A    between atoms: _249  and  _251
REMARK   98  A    between atoms: _251  and  _252
REMARK   99  A    between atoms: _251  and  _254
REMARK  100  A    between atoms: _254  and  _255
REMARK  101  A    between atoms: _255  and  _256
REMARK  102  A    between atoms: _261  and  _263
REMARK  103  A    between atoms: _263  and  _264
REMARK  104  A    between atoms: _263  and  _266
REMARK  105  A    between atoms: _266  and  _267
REMARK  106  A    between atoms: _270  and  _272
REMARK  107  A    between atoms: _272  and  _273
REMARK  108  A    between atoms: _272  and  _275
REMARK  109  A    between atoms: _275  and  _276
REMARK  110  A    between atoms: _281  and  _283
REMARK  111  A    between atoms: _283  and  _284
REMARK  112  A    between atoms: _287  and  _289
REMARK  113  A    between atoms: _289  and  _290
REMARK  114  A    between atoms: _289  and  _292
REMARK  115  A    between atoms: _292  and  _293
REMARK  116  A    between atoms: _296  and  _298
REMARK  117  A    between atoms: _298  and  _299
REMARK  118  A    between atoms: _298  and  _301
REMARK  119  A    between atoms: _301  and  _302
REMARK  120  A    between atoms: _305  and  _307
REMARK  121  A    between atoms: _307  and  _308
REMARK  122  A    between atoms: _307  and  _310
REMARK  123  A    between atoms: _310  and  _311
REMARK  124  A    between atoms: _311  and  _312
REMARK  125  A    between atoms: _312  and  _313
REMARK  126  A    between atoms: _322  and  _324
REMARK  127  A    between atoms: _324  and  _325
REMARK  128  A    between atoms: _324  and  _327
REMARK  129  A    between atoms: _327  and  _328
REMARK  130  A    between atoms: _328  and  _329
REMARK  131  A    between atoms: _329  and  _330
REMARK  132  A    between atoms: _330  and  _331
REMARK  133  A    between atoms: _335  and  _337
REMARK  134  A    between atoms: _337  and  _338
REMARK  135  A    between atoms: _337  and  _340
REMARK  136  A    between atoms: _340  and  _341
REMARK  137  A    between atoms: _344  and  _346
REMARK  138  A    between atoms: _346  and  _347
REMARK  139  A    between atoms: _350  and  _352
REMARK  140  A    between atoms: _352  and  _353
REMARK  141  A    between atoms: _352  and  _355
REMARK  142  A    between atoms: _358  and  _360
REMARK  143  A    between atoms: _360  and  _361
REMARK  144  A    between atoms: _360  and  _363
REMARK  145  A    between atoms: _363  and  _364
REMARK  146  A    between atoms: _369  and  _371
REMARK  147  A    between atoms: _371  and  _372
REMARK  148  A    between atoms: _371  and  _374
REMARK  149  A    between atoms: _374  and  _375
REMARK  150  A    between atoms: _375  and  _376
REMARK  151  A    between atoms: _378  and  _380
REMARK  152  A    between atoms: _380  and  _381
REMARK  153  A    between atoms: _380  and  _383
REMARK  154  A    between atoms: _386  and  _388
REMARK  155  A    between atoms: _388  and  _389
REMARK  156  A    between atoms: _388  and  _391
REMARK  157  A    between atoms: _391  and  _392
REMARK  158  A    between atoms: _395  and  _397
REMARK  159  A    between atoms: _397  and  _398
REMARK  160  A    between atoms: _397  and  _400
REMARK  161  A    between atoms: _400  and  _401
REMARK  162  A    between atoms: _404  and  _406
REMARK  163  A    between atoms: _406  and  _407
REMARK  164  A    between atoms: _406  and  _409
REMARK  165  A    between atoms: _412  and  _414
REMARK  166  A    between atoms: _414  and  _415
REMARK  167  A    between atoms: _418  and  _420
REMARK  168  A    between atoms: _420  and  _421
REMARK  169  A    between atoms: _424  and  _426
REMARK  170  A    between atoms: _426  and  _427
REMARK  171  A    between atoms: _426  and  _429
REMARK  172  A    between atoms: _429  and  _430
REMARK  173  A    between atoms: _433  and  _435
REMARK  174  A    between atoms: _435  and  _436
REMARK  175  A    between atoms: _435  and  _438
REMARK  176  A    between atoms: _438  and  _439
REMARK  177  A    between atoms: _445  and  _447
REMARK  178  A    between atoms: _447  and  _448
REMARK  179  A    between atoms: _447  and  _450
REMARK  180  A    between atoms: _450  and  _451
REMARK  181  A    between atoms: _455  and  _456
REMARK  182  A    between atoms: _461  and  _463
REMARK  183  A    between atoms: _463  and  _464
REMARK  184  A    between atoms: _463  and  _466
REMARK  185  A    between atoms: _466  and  _467
REMARK  186  A    between atoms: _472  and  _474
REMARK  187  A    between atoms: _474  and  _475
REMARK  188  A    between atoms: _474  and  _477
REMARK  189  A    between atoms: _477  and  _478
REMARK  190  A    between atoms: _483  and  _485
REMARK  191  A    between atoms: _485  and  _486
REMARK  192  A    between atoms: _485  and  _488
REMARK  193  A    between atoms: _491  and  _493
REMARK  194  A    between atoms: _493  and  _494
REMARK  195  A    between atoms: _493  and  _496
REMARK  196  A    between atoms: _496  and  _497
REMARK  197  A    between atoms: _497  and  _498
REMARK  198  A    between atoms: _498  and  _499
REMARK  199  A    between atoms: _499  and  _500
REMARK  200  A    between atoms: _504  and  _506
REMARK  201  A    between atoms: _506  and  _507
REMARK  202  A    between atoms: _506  and  _509
REMARK  203  A    between atoms: _509  and  _510
REMARK  204  A    between atoms: _513  and  _515
REMARK  205  A    between atoms: _515  and  _516
REMARK  206  A    between atoms: _519  and  _521
REMARK  207  A    between atoms: _521  and  _522
REMARK  208  A    between atoms: _521  and  _524
REMARK  209  A    between atoms: _527  and  _529
REMARK  210  A    between atoms: _529  and  _530
REMARK  211  A    between atoms: _529  and  _532
REMARK  212  A    between atoms: _532  and  _533
REMARK  213  A    between atoms: _536  and  _538
REMARK  214  A    between atoms: _538  and  _539
REMARK  215  A    between atoms: _538  and  _541
REMARK  216  A    between atoms: _541  and  _542
REMARK  217  A    between atoms: _548  and  _550
REMARK  218  A    between atoms: _550  and  _551
REMARK  219  A    between atoms: _550  and  _553
REMARK  220  A    between atoms: _553  and  _554
REMARK  221  A    between atoms: _557  and  _559
REMARK  222  A    between atoms: _559  and  _560
REMARK  223  A    between atoms: _559  and  _562
REMARK  224  A    between atoms: _562  and  _563
REMARK                            x       y       z     vdW  Elec       q    Type
REMARK                         _______ _______ _______ _____ _____    ______ ____
ROOT
ATOM      1  O   HOH     1      13.892  68.237  51.467  0.00  0.00    +0.000 OA
ENDROOT
TORSDOF 0
REMARK  Name = ../refined-set-2016/4o2b/4o2b_pocket.pdb
REMARK  224 active torsions:
REMARK  status: ('A' for Active; 'I' for Inactive)
REMARK    1  A    between atoms: _1  and  _3
REMARK    2  A    between atoms: _3  and  _4
REMARK    3  A    between atoms: _3  and  _6
REMARK    4  A    between atoms: _6  and  _7
REMARK    5  A    between atoms: _7  and  _8
REMARK    6  A    between atoms: _13  and  _15
REMARK    7  A    between atoms: _15  and  _16
REMARK    8  A    between atoms: _19  and  _21
REMARK    9  A    between atoms: _21  and  _22
REMARK   10  A    between atoms: _21  and  _24
REMARK   11  A    between atoms: _24  and  _25
REMARK   12  A    between atoms: _31  and  _32
REMARK   13  A    between atoms: _37  and  _39
REMARK   14  A    between atoms: _39  and  _40
REMARK   15  A    between atoms: _39  and  _42
REMARK   16  A    between atoms: _45  and  _47
REMARK   17  A    between atoms: _47  and  _48
REMARK   18  A    between atoms: _47  and  _50
REMARK   19  A    between atoms: _50  and  _51
REMARK   20  A    between atoms: _53  and  _55
REMARK   21  A    between atoms: _55  and  _56
REMARK   22  A    between atoms: _55  and  _58
REMARK   23  A    between atoms: _58  and  _59
REMARK   24  A    between atoms: _62  and  _64
REMARK   25  A    between atoms: _64  and  _65
REMARK   26  A    between atoms: _68  and  _70
REMARK   27  A    between atoms: _70  and  _71
REMARK   28  A    between atoms: _70  and  _73
REMARK   29  A    between atoms: _76  and  _78
REMARK   30  A    between atoms: _78  and  _79
REMARK   31  A    between atoms: _78  and  _81
REMARK   32  A    between atoms: _84  and  _86
REMARK   33  A    between atoms: _86  and  _87
REMARK   34  A    between atoms: _86  and  _89
REMARK   35  A    between atoms: _89  and  _90
REMARK   36  A    between atoms: _90  and  _91
REMARK   37  A    between atoms: _94  and  _96
REMARK   38  A    between atoms: _96  and  _97
REMARK   39  A    between atoms: _96  and  _99
REMARK   40  A    between atoms: _99  and  _100
REMARK   41  A    between atoms: _105  and  _106
REMARK   42  A    between atoms: _108  and  _110
REMARK   43  A    between atoms: _110  and  _111
REMARK   44  A    between atoms: _110  and  _113
REMARK   45  A    between atoms: _113  and  _114
REMARK   46  A    between atoms: _120  and  _122
REMARK   47  A    between atoms: _122  and  _123
REMARK   48  A    between atoms: _122  and  _125
REMARK   49  A    between atoms: _125  and  _126
REMARK   50  A    between atoms: _126  and  _127
REMARK   51  A    between atoms: _127  and  _128
REMARK   52  A    between atoms: _137  and  _139
REMARK   53  A    between atoms: _139  and  _140
REMARK   54  A    between atoms: _139  and  _142
REMARK   55  A    between atoms: _142  and  _143
REMARK   56  A    between atoms: _143  and  _144
REMARK   57  A    between atoms: _149  and  _151
REMARK   58  A    between atoms: _151  and  _152
REMARK   59  A    between atoms: _151  and  _154
REMARK   60  A    between atoms: _154  and  _155
REMARK   61  A    between atoms: _155  and  _156
REMARK   62  A    between atoms: _159  and  _161
REMARK   63  A    between atoms: _161  and  _162
REMARK   64  A    between atoms: _161  and  _164
REMARK   65  A    between atoms: _164  and  _165
REMARK   66  A    between atoms: _170  and  _171
REMARK   67  A    between atoms: _173  and  _175
REMARK   68  A    between atoms: _175  and  _176
REMARK   69  A    between atoms: _178  and  _180
REMARK   70  A    between atoms: _180  and  _181
REMARK   71  A    between atoms: _180  and  _183
REMARK   72  A    between atoms: _186  and  _188
REMARK   73  A    between atoms: _188  and  _189
REMARK   74  A    between atoms: _188  and  _191
REMARK   75  A    between atoms: _191  and  _192
REMARK   76  A    between atoms: _195  and  _197
REMARK   77  A    between atoms: _197  and  _198
REMARK   78  A    between atoms: _197  and  _200
REMARK   79  A    between atoms: _200  and  _201
REMARK   80  A    between atoms: _204  and  _206
REMARK   81  A    between atoms: _206  and  _207
REMARK   82  A    between atoms: _206  and  _209
REMARK   83  A    between atoms: _211  and  _213
REMARK   84  A    between atoms: _213  and  _214
REMARK   85  A    between atoms: _213  and  _216
REMARK   86  A    between atoms: _216  and  _217
REMARK   87  A    between atoms: _220  and  _222
REMARK   88  A    between atoms: _222  and  _223
REMARK   89  A    between atoms: _222  and  _225
REMARK   90  A    between atoms: _225  and  _226
REMARK   91  A    between atoms: _226  and  _227
REMARK   92  A    between atoms: _227  and  _228
REMARK   93  A    between atoms: _237  and  _239
REMARK   94  A    between atoms: _239  and  _240
REMARK   95  A    between atoms: _239  and  _242
REMARK   96  A    between atoms: _242  and  _243
REMARK   97  A    between atoms: _249  and  _251
REMARK   98  A    between atoms: _251  and  _252
REMARK   99  A    between atoms: _251  and  _254
REMARK  100  A    between atoms: _254  and  _255
REMARK  101  A    between atoms: _255  and  _256
REMARK  102  A    between atoms: _261  and  _263
REMARK  103  A    between atoms: _263  and  _264
REMARK  104  A    between atoms: _263  and  _266
REMARK  105  A    between atoms: _266  and  _267
REMARK  106  A    between atoms: _270  and  _272
REMARK  107  A    between atoms: _272  and  _273
REMARK  108  A    between atoms: _272  and  _275
REMARK  109  A    between atoms: _275  and  _276
REMARK  110  A    between atoms: _281  and  _283
REMARK  111  A    between atoms: _283  and  _284
REMARK  112  A    between atoms: _287  and  _289
REMARK  113  A    between atoms: _289  and  _290
REMARK  114  A    between atoms: _289  and  _292
REMARK  115  A    between atoms: _292  and  _293
REMARK  116  A    between atoms: _296  and  _298
REMARK  117  A    between atoms: _298  and  _299
REMARK  118  A    between atoms: _298  and  _301
REMARK  119  A    between atoms: _301  and  _302
REMARK  120  A    between atoms: _305  and  _307
REMARK  121  A    between atoms: _307  and  _308
REMARK  122  A    between atoms: _307  and  _310
REMARK  123  A    between atoms: _310  and  _311
REMARK  124  A    between atoms: _311  and  _312
REMARK  125  A    between atoms: _312  and  _313
REMARK  126  A    between atoms: _322  and  _324
REMARK  127  A    between atoms: _324  and  _325
REMARK  128  A    between atoms: _324  and  _327
REMARK  129  A    between atoms: _327  and  _328
REMARK  130  A    between atoms: _328  and  _329
REMARK  131  A    between atoms: _329  and  _330
REMARK  132  A    between atoms: _330  and  _331
REMARK  133  A    between atoms: _335  and  _337
REMARK  134  A    between atoms: _337  and  _338
REMARK  135  A    between atoms: _337  and  _340
REMARK  136  A    between atoms: _340  and  _341
REMARK  137  A    between atoms: _344  and  _346
REMARK  138  A    between atoms: _346  and  _347
REMARK  139  A    between atoms: _350  and  _352
REMARK  140  A    between atoms: _352  and  _353
REMARK  141  A    between atoms: _352  and  _355
REMARK  142  A    between atoms: _358  and  _360
REMARK  143  A    between atoms: _360  and  _361
REMARK  144  A    between atoms: _360  and  _363
REMARK  145  A    between atoms: _363  and  _364
REMARK  146  A    between atoms: _369  and  _371
REMARK  147  A    between atoms: _371  and  _372
REMARK  148  A    between atoms: _371  and  _374
REMARK  149  A    between atoms: _374  and  _375
REMARK  150  A    between atoms: _375  and  _376
REMARK  151  A    between atoms: _378  and  _380
REMARK  152  A    between atoms: _380  and  _381
REMARK  153  A    between atoms: _380  and  _383
REMARK  154  A    between atoms: _386  and  _388
REMARK  155  A    between atoms: _388  and  _389
REMARK  156  A    between atoms: _388  and  _391
REMARK  157  A    between atoms: _391  and  _392
REMARK  158  A    between atoms: _395  and  _397
REMARK  159  A    between atoms: _397  and  _398
REMARK  160  A    between atoms: _397  and  _400
REMARK  161  A    between atoms: _400  and  _401
REMARK  162  A    between atoms: _404  and  _406
REMARK  163  A    between atoms: _406  and  _407
REMARK  164  A    between atoms: _406  and  _409
REMARK  165  A    between atoms: _412  and  _414
REMARK  166  A    between atoms: _414  and  _415
REMARK  167  A    between atoms: _418  and  _420
REMARK  168  A    between atoms: _420  and  _421
REMARK  169  A    between atoms: _424  and  _426
REMARK  170  A    between atoms: _426  and  _427
REMARK  171  A    between atoms: _426  and  _429
REMARK  172  A    between atoms: _429  and  _430
REMARK  173  A    between atoms: _433  and  _435
REMARK  174  A    between atoms: _435  and  _436
REMARK  175  A    between atoms: _435  and  _438
REMARK  176  A    between atoms: _438  and  _439
REMARK  177  A    between atoms: _445  and  _447
REMARK  178  A    between atoms: _447  and  _448
REMARK  179  A    between atoms: _447  and  _450
REMARK  180  A    between atoms: _450  and  _451
REMARK  181  A    between atoms: _455  and  _456
REMARK  182  A    between atoms: _461  and  _463
REMARK  183  A    between atoms: _463  and  _464
REMARK  184  A    between atoms: _463  and  _466
REMARK  185  A    between atoms: _466  and  _467
REMARK  186  A    between atoms: _472  and  _474
REMARK  187  A    between atoms: _474  and  _475
REMARK  188  A    between atoms: _474  and  _477
REMARK  189  A    between atoms: _477  and  _478
REMARK  190  A    between atoms: _483  and  _485
REMARK  191  A    between atoms: _485  and  _486
REMARK  192  A    between atoms: _485  and  _488
REMARK  193  A    between atoms: _491  and  _493
REMARK  194  A    between atoms: _493  and  _494
REMARK  195  A    between atoms: _493  and  _496
REMARK  196  A    between atoms: _496  and  _497
REMARK  197  A    between atoms: _497  and  _498
REMARK  198  A    between atoms: _498  and  _499
REMARK  199  A    between atoms: _499  and  _500
REMARK  200  A    between atoms: _504  and  _506
REMARK  201  A    between atoms: _506  and  _507
REMARK  202  A    between atoms: _506  and  _509
REMARK  203  A    between atoms: _509  and  _510
REMARK  204  A    between atoms: _513  and  _515
REMARK  205  A    between atoms: _515  and  _516
REMARK  206  A    between atoms: _519  and  _521
REMARK  207  A    between atoms: _521  and  _522
REMARK  208  A    between atoms: _521  and  _524
REMARK  209  A    between atoms: _527  and  _529
REMARK  210  A    between atoms: _529  and  _530
REMARK  211  A    between atoms: _529  and  _532
REMARK  212  A    between atoms: _532  and  _533
REMARK  213  A    between atoms: _536  and  _538
REMARK  214  A    between atoms: _538  and  _539
REMARK  215  A    between atoms: _538  and  _541
REMARK  216  A    between atoms: _541  and  _542
REMARK  217  A    between atoms: _548  and  _550
REMARK  218  A    between atoms: _550  and  _551
REMARK  219  A    between atoms: _550  and  _553
REMARK  220  A    between atoms: _553  and  _554
REMARK  221  A    between atoms: _557  and  _559
REMARK  222  A    between atoms: _559  and  _560
REMARK  223  A    between atoms: _559  and  _562
REMARK  224  A    between atoms: _562  and  _563
REMARK                            x       y       z     vdW  Elec       q    Type
REMARK                         _______ _______ _______ _____ _____    ______ ____
ROOT
ATOM      1  O   HOH     1      19.856  70.862  49.026  0.00  0.00    +0.000 OA
ENDROOT
TORSDOF 0
REMARK  Name = ../refined-set-2016/4o2b/4o2b_pocket.pdb
REMARK  224 active torsions:
REMARK  status: ('A' for Active; 'I' for Inactive)
REMARK    1  A    between atoms: _1  and  _3
REMARK    2  A    between atoms: _3  and  _4
REMARK    3  A    between atoms: _3  and  _6
REMARK    4  A    between atoms: _6  and  _7
REMARK    5  A    between atoms: _7  and  _8
REMARK    6  A    between atoms: _13  and  _15
REMARK    7  A    between atoms: _15  and  _16
REMARK    8  A    between atoms: _19  and  _21
REMARK    9  A    between atoms: _21  and  _22
REMARK   10  A    between atoms: _21  and  _24
REMARK   11  A    between atoms: _24  and  _25
REMARK   12  A    between atoms: _31  and  _32
REMARK   13  A    between atoms: _37  and  _39
REMARK   14  A    between atoms: _39  and  _40
REMARK   15  A    between atoms: _39  and  _42
REMARK   16  A    between atoms: _45  and  _47
REMARK   17  A    between atoms: _47  and  _48
REMARK   18  A    between atoms: _47  and  _50
REMARK   19  A    between atoms: _50  and  _51
REMARK   20  A    between atoms: _53  and  _55
REMARK   21  A    between atoms: _55  and  _56
REMARK   22  A    between atoms: _55  and  _58
REMARK   23  A    between atoms: _58  and  _59
REMARK   24  A    between atoms: _62  and  _64
REMARK   25  A    between atoms: _64  and  _65
REMARK   26  A    between atoms: _68  and  _70
REMARK   27  A    between atoms: _70  and  _71
REMARK   28  A    between atoms: _70  and  _73
REMARK   29  A    between atoms: _76  and  _78
REMARK   30  A    between atoms: _78  and  _79
REMARK   31  A    between atoms: _78  and  _81
REMARK   32  A    between atoms: _84  and  _86
REMARK   33  A    between atoms: _86  and  _87
REMARK   34  A    between atoms: _86  and  _89
REMARK   35  A    between atoms: _89  and  _90
REMARK   36  A    between atoms: _90  and  _91
REMARK   37  A    between atoms: _94  and  _96
REMARK   38  A    between atoms: _96  and  _97
REMARK   39  A    between atoms: _96  and  _99
REMARK   40  A    between atoms: _99  and  _100
REMARK   41  A    between atoms: _105  and  _106
REMARK   42  A    between atoms: _108  and  _110
REMARK   43  A    between atoms: _110  and  _111
REMARK   44  A    between atoms: _110  and  _113
REMARK   45  A    between atoms: _113  and  _114
REMARK   46  A    between atoms: _120  and  _122
REMARK   47  A    between atoms: _122  and  _123
REMARK   48  A    between atoms: _122  and  _125
REMARK   49  A    between atoms: _125  and  _126
REMARK   50  A    between atoms: _126  and  _127
REMARK   51  A    between atoms: _127  and  _128
REMARK   52  A    between atoms: _137  and  _139
REMARK   53  A    between atoms: _139  and  _140
REMARK   54  A    between atoms: _139  and  _142
REMARK   55  A    between atoms: _142  and  _143
REMARK   56  A    between atoms: _143  and  _144
REMARK   57  A    between atoms: _149  and  _151
REMARK   58  A    between atoms: _151  and  _152
REMARK   59  A    between atoms: _151  and  _154
REMARK   60  A    between atoms: _154  and  _155
REMARK   61  A    between atoms: _155  and  _156
REMARK   62  A    between atoms: _159  and  _161
REMARK   63  A    between atoms: _161  and  _162
REMARK   64  A    between atoms: _161  and  _164
REMARK   65  A    between atoms: _164  and  _165
REMARK   66  A    between atoms: _170  and  _171
REMARK   67  A    between atoms: _173  and  _175
REMARK   68  A    between atoms: _175  and  _176
REMARK   69  A    between atoms: _178  and  _180
REMARK   70  A    between atoms: _180  and  _181
REMARK   71  A    between atoms: _180  and  _183
REMARK   72  A    between atoms: _186  and  _188
REMARK   73  A    between atoms: _188  and  _189
REMARK   74  A    between atoms: _188  and  _191
REMARK   75  A    between atoms: _191  and  _192
REMARK   76  A    between atoms: _195  and  _197
REMARK   77  A    between atoms: _197  and  _198
REMARK   78  A    between atoms: _197  and  _200
REMARK   79  A    between atoms: _200  and  _201
REMARK   80  A    between atoms: _204  and  _206
REMARK   81  A    between atoms: _206  and  _207
REMARK   82  A    between atoms: _206  and  _209
REMARK   83  A    between atoms: _211  and  _213
REMARK   84  A    between atoms: _213  and  _214
REMARK   85  A    between atoms: _213  and  _216
REMARK   86  A    between atoms: _216  and  _217
REMARK   87  A    between atoms: _220  and  _222
REMARK   88  A    between atoms: _222  and  _223
REMARK   89  A    between atoms: _222  and  _225
REMARK   90  A    between atoms: _225  and  _226
REMARK   91  A    between atoms: _226  and  _227
REMARK   92  A    between atoms: _227  and  _228
REMARK   93  A    between atoms: _237  and  _239
REMARK   94  A    between atoms: _239  and  _240
REMARK   95  A    between atoms: _239  and  _242
REMARK   96  A    between atoms: _242  and  _243
REMARK   97  A    between atoms: _249  and  _251
REMARK   98  A    between atoms: _251  and  _252
REMARK   99  A    between atoms: _251  and  _254
REMARK  100  A    between atoms: _254  and  _255
REMARK  101  A    between atoms: _255  and  _256
REMARK  102  A    between atoms: _261  and  _263
REMARK  103  A    between atoms: _263  and  _264
REMARK  104  A    between atoms: _263  and  _266
REMARK  105  A    between atoms: _266  and  _267
REMARK  106  A    between atoms: _270  and  _272
REMARK  107  A    between atoms: _272  and  _273
REMARK  108  A    between atoms: _272  and  _275
REMARK  109  A    between atoms: _275  and  _276
REMARK  110  A    between atoms: _281  and  _283
REMARK  111  A    between atoms: _283  and  _284
REMARK  112  A    between atoms: _287  and  _289
REMARK  113  A    between atoms: _289  and  _290
REMARK  114  A    between atoms: _289  and  _292
REMARK  115  A    between atoms: _292  and  _293
REMARK  116  A    between atoms: _296  and  _298
REMARK  117  A    between atoms: _298  and  _299
REMARK  118  A    between atoms: _298  and  _301
REMARK  119  A    between atoms: _301  and  _302
REMARK  120  A    between atoms: _305  and  _307
REMARK  121  A    between atoms: _307  and  _308
REMARK  122  A    between atoms: _307  and  _310
REMARK  123  A    between atoms: _310  and  _311
REMARK  124  A    between atoms: _311  and  _312
REMARK  125  A    between atoms: _312  and  _313
REMARK  126  A    between atoms: _322  and  _324
REMARK  127  A    between atoms: _324  and  _325
REMARK  128  A    between atoms: _324  and  _327
REMARK  129  A    between atoms: _327  and  _328
REMARK  130  A    between atoms: _328  and  _329
REMARK  131  A    between atoms: _329  and  _330
REMARK  132  A    between atoms: _330  and  _331
REMARK  133  A    between atoms: _335  and  _337
REMARK  134  A    between atoms: _337  and  _338
REMARK  135  A    between atoms: _337  and  _340
REMARK  136  A    between atoms: _340  and  _341
REMARK  137  A    between atoms: _344  and  _346
REMARK  138  A    between atoms: _346  and  _347
REMARK  139  A    between atoms: _350  and  _352
REMARK  140  A    between atoms: _352  and  _353
REMARK  141  A    between atoms: _352  and  _355
REMARK  142  A    between atoms: _358  and  _360
REMARK  143  A    between atoms: _360  and  _361
REMARK  144  A    between atoms: _360  and  _363
REMARK  145  A    between atoms: _363  and  _364
REMARK  146  A    between atoms: _369  and  _371
REMARK  147  A    between atoms: _371  and  _372
REMARK  148  A    between atoms: _371  and  _374
REMARK  149  A    between atoms: _374  and  _375
REMARK  150  A    between atoms: _375  and  _376
REMARK  151  A    between atoms: _378  and  _380
REMARK  152  A    between atoms: _380  and  _381
REMARK  153  A    between atoms: _380  and  _383
REMARK  154  A    between atoms: _386  and  _388
REMARK  155  A    between atoms: _388  and  _389
REMARK  156  A    between atoms: _388  and  _391
REMARK  157  A    between atoms: _391  and  _392
REMARK  158  A    between atoms: _395  and  _397
REMARK  159  A    between atoms: _397  and  _398
REMARK  160  A    between atoms: _397  and  _400
REMARK  161  A    between atoms: _400  and  _401
REMARK  162  A    between atoms: _404  and  _406
REMARK  163  A    between atoms: _406  and  _407
REMARK  164  A    between atoms: _406  and  _409
REMARK  165  A    between atoms: _412  and  _414
REMARK  166  A    between atoms: _414  and  _415
REMARK  167  A    between atoms: _418  and  _420
REMARK  168  A    between atoms: _420  and  _421
REMARK  169  A    between atoms: _424  and  _426
REMARK  170  A    between atoms: _426  and  _427
REMARK  171  A    between atoms: _426  and  _429
REMARK  172  A    between atoms: _429  and  _430
REMARK  173  A    between atoms: _433  and  _435
REMARK  174  A    between atoms: _435  and  _436
REMARK  175  A    between atoms: _435  and  _438
REMARK  176  A    between atoms: _438  and  _439
REMARK  177  A    between atoms: _445  and  _447
REMARK  178  A    between atoms: _447  and  _448
REMARK  179  A    between atoms: _447  and  _450
REMARK  180  A    between atoms: _450  and  _451
REMARK  181  A    between atoms: _455  and  _456
REMARK  182  A    between atoms: _461  and  _463
REMARK  183  A    between atoms: _463  and  _464
REMARK  184  A    between atoms: _463  and  _466
REMARK  185  A    between atoms: _466  and  _467
REMARK  186  A    between atoms: _472  and  _474
REMARK  187  A    between atoms: _474  and  _475
REMARK  188  A    between atoms: _474  and  _477
REMARK  189  A    between atoms: _477  and  _478
REMARK  190  A    between atoms: _483  and  _485
REMARK  191  A    between atoms: _485  and  _486
REMARK  192  A    between atoms: _485  and  _488
REMARK  193  A    between atoms: _491  and  _493
REMARK  194  A    between atoms: _493  and  _494
REMARK  195  A    between atoms: _493  and  _496
REMARK  196  A    between atoms: _496  and  _497
REMARK  197  A    between atoms: _497  and  _498
REMARK  198  A    between atoms: _498  and  _499
REMARK  199  A    between atoms: _499  and  _500
REMARK  200  A    between atoms: _504  and  _506
REMARK  201  A    between atoms: _506  and  _507
REMARK  202  A    between atoms: _506  and  _509
REMARK  203  A    between atoms: _509  and  _510
REMARK  204  A    between atoms: _513  and  _515
REMARK  205  A    between atoms: _515  and  _516
REMARK  206  A    between atoms: _519  and  _521
REMARK  207  A    between atoms: _521  and  _522
REMARK  208  A    between atoms: _521  and  _524
REMARK  209  A    between atoms: _527  and  _529
REMARK  210  A    between atoms: _529  and  _530
REMARK  211  A    between atoms: _529  and  _532
REMARK  212  A    between atoms: _532  and  _533
REMARK  213  A    between atoms: _536  and  _538
REMARK  214  A    between atoms: _538  and  _539
REMARK  215  A    between atoms: _538  and  _541
REMARK  216  A    between atoms: _541  and  _542
REMARK  217  A    between atoms: _548  and  _550
REMARK  218  A    between atoms: _550  and  _551
REMARK  219  A    between atoms: _550  and  _553
REMARK  220  A    between atoms: _553  and  _554
REMARK  221  A    between atoms: _557  and  _559
REMARK  222  A    between atoms: _559  and  _560
REMARK  223  A    between atoms: _559  and  _562
REMARK  224  A    between atoms: _562  and  _563
REMARK                            x       y       z     vdW  Elec       q    Type
REMARK                         _______ _______ _______ _____ _____    ______ ____
ROOT
ATOM      1  O   HOH     1      20.391  73.878  47.266  0.00  0.00    +0.000 OA
ENDROOT
TORSDOF 0
REMARK  Name = ../refined-set-2016/4o2b/4o2b_pocket.pdb
REMARK  224 active torsions:
REMARK  status: ('A' for Active; 'I' for Inactive)
REMARK    1  A    between atoms: _1  and  _3
REMARK    2  A    between atoms: _3  and  _4
REMARK    3  A    between atoms: _3  and  _6
REMARK    4  A    between atoms: _6  and  _7
REMARK    5  A    between atoms: _7  and  _8
REMARK    6  A    between atoms: _13  and  _15
REMARK    7  A    between atoms: _15  and  _16
REMARK    8  A    between atoms: _19  and  _21
REMARK    9  A    between atoms: _21  and  _22
REMARK   10  A    between atoms: _21  and  _24
REMARK   11  A    between atoms: _24  and  _25
REMARK   12  A    between atoms: _31  and  _32
REMARK   13  A    between atoms: _37  and  _39
REMARK   14  A    between atoms: _39  and  _40
REMARK   15  A    between atoms: _39  and  _42
REMARK   16  A    between atoms: _45  and  _47
REMARK   17  A    between atoms: _47  and  _48
REMARK   18  A    between atoms: _47  and  _50
REMARK   19  A    between atoms: _50  and  _51
REMARK   20  A    between atoms: _53  and  _55
REMARK   21  A    between atoms: _55  and  _56
REMARK   22  A    between atoms: _55  and  _58
REMARK   23  A    between atoms: _58  and  _59
REMARK   24  A    between atoms: _62  and  _64
REMARK   25  A    between atoms: _64  and  _65
REMARK   26  A    between atoms: _68  and  _70
REMARK   27  A    between atoms: _70  and  _71
REMARK   28  A    between atoms: _70  and  _73
REMARK   29  A    between atoms: _76  and  _78
REMARK   30  A    between atoms: _78  and  _79
REMARK   31  A    between atoms: _78  and  _81
REMARK   32  A    between atoms: _84  and  _86
REMARK   33  A    between atoms: _86  and  _87
REMARK   34  A    between atoms: _86  and  _89
REMARK   35  A    between atoms: _89  and  _90
REMARK   36  A    between atoms: _90  and  _91
REMARK   37  A    between atoms: _94  and  _96
REMARK   38  A    between atoms: _96  and  _97
REMARK   39  A    between atoms: _96  and  _99
REMARK   40  A    between atoms: _99  and  _100
REMARK   41  A    between atoms: _105  and  _106
REMARK   42  A    between atoms: _108  and  _110
REMARK   43  A    between atoms: _110  and  _111
REMARK   44  A    between atoms: _110  and  _113
REMARK   45  A    between atoms: _113  and  _114
REMARK   46  A    between atoms: _120  and  _122
REMARK   47  A    between atoms: _122  and  _123
REMARK   48  A    between atoms: _122  and  _125
REMARK   49  A    between atoms: _125  and  _126
REMARK   50  A    between atoms: _126  and  _127
REMARK   51  A    between atoms: _127  and  _128
REMARK   52  A    between atoms: _137  and  _139
REMARK   53  A    between atoms: _139  and  _140
REMARK   54  A    between atoms: _139  and  _142
REMARK   55  A    between atoms: _142  and  _143
REMARK   56  A    between atoms: _143  and  _144
REMARK   57  A    between atoms: _149  and  _151
REMARK   58  A    between atoms: _151  and  _152
REMARK   59  A    between atoms: _151  and  _154
REMARK   60  A    between atoms: _154  and  _155
REMARK   61  A    between atoms: _155  and  _156
REMARK   62  A    between atoms: _159  and  _161
REMARK   63  A    between atoms: _161  and  _162
REMARK   64  A    between atoms: _161  and  _164
REMARK   65  A    between atoms: _164  and  _165
REMARK   66  A    between atoms: _170  and  _171
REMARK   67  A    between atoms: _173  and  _175
REMARK   68  A    between atoms: _175  and  _176
REMARK   69  A    between atoms: _178  and  _180
REMARK   70  A    between atoms: _180  and  _181
REMARK   71  A    between atoms: _180  and  _183
REMARK   72  A    between atoms: _186  and  _188
REMARK   73  A    between atoms: _188  and  _189
REMARK   74  A    between atoms: _188  and  _191
REMARK   75  A    between atoms: _191  and  _192
REMARK   76  A    between atoms: _195  and  _197
REMARK   77  A    between atoms: _197  and  _198
REMARK   78  A    between atoms: _197  and  _200
REMARK   79  A    between atoms: _200  and  _201
REMARK   80  A    between atoms: _204  and  _206
REMARK   81  A    between atoms: _206  and  _207
REMARK   82  A    between atoms: _206  and  _209
REMARK   83  A    between atoms: _211  and  _213
REMARK   84  A    between atoms: _213  and  _214
REMARK   85  A    between atoms: _213  and  _216
REMARK   86  A    between atoms: _216  and  _217
REMARK   87  A    between atoms: _220  and  _222
REMARK   88  A    between atoms: _222  and  _223
REMARK   89  A    between atoms: _222  and  _225
REMARK   90  A    between atoms: _225  and  _226
REMARK   91  A    between atoms: _226  and  _227
REMARK   92  A    between atoms: _227  and  _228
REMARK   93  A    between atoms: _237  and  _239
REMARK   94  A    between atoms: _239  and  _240
REMARK   95  A    between atoms: _239  and  _242
REMARK   96  A    between atoms: _242  and  _243
REMARK   97  A    between atoms: _249  and  _251
REMARK   98  A    between atoms: _251  and  _252
REMARK   99  A    between atoms: _251  and  _254
REMARK  100  A    between atoms: _254  and  _255
REMARK  101  A    between atoms: _255  and  _256
REMARK  102  A    between atoms: _261  and  _263
REMARK  103  A    between atoms: _263  and  _264
REMARK  104  A    between atoms: _263  and  _266
REMARK  105  A    between atoms: _266  and  _267
REMARK  106  A    between atoms: _270  and  _272
REMARK  107  A    between atoms: _272  and  _273
REMARK  108  A    between atoms: _272  and  _275
REMARK  109  A    between atoms: _275  and  _276
REMARK  110  A    between atoms: _281  and  _283
REMARK  111  A    between atoms: _283  and  _284
REMARK  112  A    between atoms: _287  and  _289
REMARK  113  A    between atoms: _289  and  _290
REMARK  114  A    between atoms: _289  and  _292
REMARK  115  A    between atoms: _292  and  _293
REMARK  116  A    between atoms: _296  and  _298
REMARK  117  A    between atoms: _298  and  _299
REMARK  118  A    between atoms: _298  and  _301
REMARK  119  A    between atoms: _301  and  _302
REMARK  120  A    between atoms: _305  and  _307
REMARK  121  A    between atoms: _307  and  _308
REMARK  122  A    between atoms: _307  and  _310
REMARK  123  A    between atoms: _310  and  _311
REMARK  124  A    between atoms: _311  and  _312
REMARK  125  A    between atoms: _312  and  _313
REMARK  126  A    between atoms: _322  and  _324
REMARK  127  A    between atoms: _324  and  _325
REMARK  128  A    between atoms: _324  and  _327
REMARK  129  A    between atoms: _327  and  _328
REMARK  130  A    between atoms: _328  and  _329
REMARK  131  A    between atoms: _329  and  _330
REMARK  132  A    between atoms: _330  and  _331
REMARK  133  A    between atoms: _335  and  _337
REMARK  134  A    between atoms: _337  and  _338
REMARK  135  A    between atoms: _337  and  _340
REMARK  136  A    between atoms: _340  and  _341
REMARK  137  A    between atoms: _344  and  _346
REMARK  138  A    between atoms: _346  and  _347
REMARK  139  A    between atoms: _350  and  _352
REMARK  140  A    between atoms: _352  and  _353
REMARK  141  A    between atoms: _352  and  _355
REMARK  142  A    between atoms: _358  and  _360
REMARK  143  A    between atoms: _360  and  _361
REMARK  144  A    between atoms: _360  and  _363
REMARK  145  A    between atoms: _363  and  _364
REMARK  146  A    between atoms: _369  and  _371
REMARK  147  A    between atoms: _371  and  _372
REMARK  148  A    between atoms: _371  and  _374
REMARK  149  A    between atoms: _374  and  _375
REMARK  150  A    between atoms: _375  and  _376
REMARK  151  A    between atoms: _378  and  _380
REMARK  152  A    between atoms: _380  and  _381
REMARK  153  A    between atoms: _380  and  _383
REMARK  154  A    between atoms: _386  and  _388
REMARK  155  A    between atoms: _388  and  _389
REMARK  156  A    between atoms: _388  and  _391
REMARK  157  A    between atoms: _391  and  _392
REMARK  158  A    between atoms: _395  and  _397
REMARK  159  A    between atoms: _397  and  _398
REMARK  160  A    between atoms: _397  and  _400
REMARK  161  A    between atoms: _400  and  _401
REMARK  162  A    between atoms: _404  and  _406
REMARK  163  A    between atoms: _406  and  _407
REMARK  164  A    between atoms: _406  and  _409
REMARK  165  A    between atoms: _412  and  _414
REMARK  166  A    between atoms: _414  and  _415
REMARK  167  A    between atoms: _418  and  _420
REMARK  168  A    between atoms: _420  and  _421
REMARK  169  A    between atoms: _424  and  _426
REMARK  170  A    between atoms: _426  and  _427
REMARK  171  A    between atoms: _426  and  _429
REMARK  172  A    between atoms: _429  and  _430
REMARK  173  A    between atoms: _433  and  _435
REMARK  174  A    between atoms: _435  and  _436
REMARK  175  A    between atoms: _435  and  _438
REMARK  176  A    between atoms: _438  and  _439
REMARK  177  A    between atoms: _445  and  _447
REMARK  178  A    between atoms: _447  and  _448
REMARK  179  A    between atoms: _447  and  _450
REMARK  180  A    between atoms: _450  and  _451
REMARK  181  A    between atoms: _455  and  _456
REMARK  182  A    between atoms: _461  and  _463
REMARK  183  A    between atoms: _463  and  _464
REMARK  184  A    between atoms: _463  and  _466
REMARK  185  A    between atoms: _466  and  _467
REMARK  186  A    between atoms: _472  and  _474
REMARK  187  A    between atoms: _474  and  _475
REMARK  188  A    between atoms: _474  and  _477
REMARK  189  A    between atoms: _477  and  _478
REMARK  190  A    between atoms: _483  and  _485
REMARK  191  A    between atoms: _485  and  _486
REMARK  192  A    between atoms: _485  and  _488
REMARK  193  A    between atoms: _491  and  _493
REMARK  194  A    between atoms: _493  and  _494
REMARK  195  A    between atoms: _493  and  _496
REMARK  196  A    between atoms: _496  and  _497
REMARK  197  A    between atoms: _497  and  _498
REMARK  198  A    between atoms: _498  and  _499
REMARK  199  A    between atoms: _499  and  _500
REMARK  200  A    between atoms: _504  and  _506
REMARK  201  A    between atoms: _506  and  _507
REMARK  202  A    between atoms: _506  and  _509
REMARK  203  A    between atoms: _509  and  _510
REMARK  204  A    between atoms: _513  and  _515
REMARK  205  A    between atoms: _515  and  _516
REMARK  206  A    between atoms: _519  and  _521
REMARK  207  A    between atoms: _521  and  _522
REMARK  208  A    between atoms: _521  and  _524
REMARK  209  A    between atoms: _527  and  _529
REMARK  210  A    between atoms: _529  and  _530
REMARK  211  A    between atoms: _529  and  _532
REMARK  212  A    between atoms: _532  and  _533
REMARK  213  A    between atoms: _536  and  _538
REMARK  214  A    between atoms: _538  and  _539
REMARK  215  A    between atoms: _538  and  _541
REMARK  216  A    between atoms: _541  and  _542
REMARK  217  A    between atoms: _548  and  _550
REMARK  218  A    between atoms: _550  and  _551
REMARK  219  A    between atoms: _550  and  _553
REMARK  220  A    between atoms: _553  and  _554
REMARK  221  A    between atoms: _557  and  _559
REMARK  222  A    between atoms: _559  and  _560
REMARK  223  A    between atoms: _559  and  _562
REMARK  224  A    between atoms: _562  and  _563
REMARK                            x       y       z     vdW  Elec       q    Type
REMARK                         _______ _______ _______ _____ _____    ______ ____
ROOT
ATOM      1  O   HOH     1      12.610  68.816  49.396  0.00  0.00    +0.000 OA
ENDROOT
TORSDOF 0
REMARK  Name = ../refined-set-2016/4o2b/4o2b_pocket.pdb
REMARK  224 active torsions:
REMARK  status: ('A' for Active; 'I' for Inactive)
REMARK    1  A    between atoms: _1  and  _3
REMARK    2  A    between atoms: _3  and  _4
REMARK    3  A    between atoms: _3  and  _6
REMARK    4  A    between atoms: _6  and  _7
REMARK    5  A    between atoms: _7  and  _8
REMARK    6  A    between atoms: _13  and  _15
REMARK    7  A    between atoms: _15  and  _16
REMARK    8  A    between atoms: _19  and  _21
REMARK    9  A    between atoms: _21  and  _22
REMARK   10  A    between atoms: _21  and  _24
REMARK   11  A    between atoms: _24  and  _25
REMARK   12  A    between atoms: _31  and  _32
REMARK   13  A    between atoms: _37  and  _39
REMARK   14  A    between atoms: _39  and  _40
REMARK   15  A    between atoms: _39  and  _42
REMARK   16  A    between atoms: _45  and  _47
REMARK   17  A    between atoms: _47  and  _48
REMARK   18  A    between atoms: _47  and  _50
REMARK   19  A    between atoms: _50  and  _51
REMARK   20  A    between atoms: _53  and  _55
REMARK   21  A    between atoms: _55  and  _56
REMARK   22  A    between atoms: _55  and  _58
REMARK   23  A    between atoms: _58  and  _59
REMARK   24  A    between atoms: _62  and  _64
REMARK   25  A    between atoms: _64  and  _65
REMARK   26  A    between atoms: _68  and  _70
REMARK   27  A    between atoms: _70  and  _71
REMARK   28  A    between atoms: _70  and  _73
REMARK   29  A    between atoms: _76  and  _78
REMARK   30  A    between atoms: _78  and  _79
REMARK   31  A    between atoms: _78  and  _81
REMARK   32  A    between atoms: _84  and  _86
REMARK   33  A    between atoms: _86  and  _87
REMARK   34  A    between atoms: _86  and  _89
REMARK   35  A    between atoms: _89  and  _90
REMARK   36  A    between atoms: _90  and  _91
REMARK   37  A    between atoms: _94  and  _96
REMARK   38  A    between atoms: _96  and  _97
REMARK   39  A    between atoms: _96  and  _99
REMARK   40  A    between atoms: _99  and  _100
REMARK   41  A    between atoms: _105  and  _106
REMARK   42  A    between atoms: _108  and  _110
REMARK   43  A    between atoms: _110  and  _111
REMARK   44  A    between atoms: _110  and  _113
REMARK   45  A    between atoms: _113  and  _114
REMARK   46  A    between atoms: _120  and  _122
REMARK   47  A    between atoms: _122  and  _123
REMARK   48  A    between atoms: _122  and  _125
REMARK   49  A    between atoms: _125  and  _126
REMARK   50  A    between atoms: _126  and  _127
REMARK   51  A    between atoms: _127  and  _128
REMARK   52  A    between atoms: _137  and  _139
REMARK   53  A    between atoms: _139  and  _140
REMARK   54  A    between atoms: _139  and  _142
REMARK   55  A    between atoms: _142  and  _143
REMARK   56  A    between atoms: _143  and  _144
REMARK   57  A    between atoms: _149  and  _151
REMARK   58  A    between atoms: _151  and  _152
REMARK   59  A    between atoms: _151  and  _154
REMARK   60  A    between atoms: _154  and  _155
REMARK   61  A    between atoms: _155  and  _156
REMARK   62  A    between atoms: _159  and  _161
REMARK   63  A    between atoms: _161  and  _162
REMARK   64  A    between atoms: _161  and  _164
REMARK   65  A    between atoms: _164  and  _165
REMARK   66  A    between atoms: _170  and  _171
REMARK   67  A    between atoms: _173  and  _175
REMARK   68  A    between atoms: _175  and  _176
REMARK   69  A    between atoms: _178  and  _180
REMARK   70  A    between atoms: _180  and  _181
REMARK   71  A    between atoms: _180  and  _183
REMARK   72  A    between atoms: _186  and  _188
REMARK   73  A    between atoms: _188  and  _189
REMARK   74  A    between atoms: _188  and  _191
REMARK   75  A    between atoms: _191  and  _192
REMARK   76  A    between atoms: _195  and  _197
REMARK   77  A    between atoms: _197  and  _198
REMARK   78  A    between atoms: _197  and  _200
REMARK   79  A    between atoms: _200  and  _201
REMARK   80  A    between atoms: _204  and  _206
REMARK   81  A    between atoms: _206  and  _207
REMARK   82  A    between atoms: _206  and  _209
REMARK   83  A    between atoms: _211  and  _213
REMARK   84  A    between atoms: _213  and  _214
REMARK   85  A    between atoms: _213  and  _216
REMARK   86  A    between atoms: _216  and  _217
REMARK   87  A    between atoms: _220  and  _222
REMARK   88  A    between atoms: _222  and  _223
REMARK   89  A    between atoms: _222  and  _225
REMARK   90  A    between atoms: _225  and  _226
REMARK   91  A    between atoms: _226  and  _227
REMARK   92  A    between atoms: _227  and  _228
REMARK   93  A    between atoms: _237  and  _239
REMARK   94  A    between atoms: _239  and  _240
REMARK   95  A    between atoms: _239  and  _242
REMARK   96  A    between atoms: _242  and  _243
REMARK   97  A    between atoms: _249  and  _251
REMARK   98  A    between atoms: _251  and  _252
REMARK   99  A    between atoms: _251  and  _254
REMARK  100  A    between atoms: _254  and  _255
REMARK  101  A    between atoms: _255  and  _256
REMARK  102  A    between atoms: _261  and  _263
REMARK  103  A    between atoms: _263  and  _264
REMARK  104  A    between atoms: _263  and  _266
REMARK  105  A    between atoms: _266  and  _267
REMARK  106  A    between atoms: _270  and  _272
REMARK  107  A    between atoms: _272  and  _273
REMARK  108  A    between atoms: _272  and  _275
REMARK  109  A    between atoms: _275  and  _276
REMARK  110  A    between atoms: _281  and  _283
REMARK  111  A    between atoms: _283  and  _284
REMARK  112  A    between atoms: _287  and  _289
REMARK  113  A    between atoms: _289  and  _290
REMARK  114  A    between atoms: _289  and  _292
REMARK  115  A    between atoms: _292  and  _293
REMARK  116  A    between atoms: _296  and  _298
REMARK  117  A    between atoms: _298  and  _299
REMARK  118  A    between atoms: _298  and  _301
REMARK  119  A    between atoms: _301  and  _302
REMARK  120  A    between atoms: _305  and  _307
REMARK  121  A    between atoms: _307  and  _308
REMARK  122  A    between atoms: _307  and  _310
REMARK  123  A    between atoms: _310  and  _311
REMARK  124  A    between atoms: _311  and  _312
REMARK  125  A    between atoms: _312  and  _313
REMARK  126  A    between atoms: _322  and  _324
REMARK  127  A    between atoms: _324  and  _325
REMARK  128  A    between atoms: _324  and  _327
REMARK  129  A    between atoms: _327  and  _328
REMARK  130  A    between atoms: _328  and  _329
REMARK  131  A    between atoms: _329  and  _330
REMARK  132  A    between atoms: _330  and  _331
REMARK  133  A    between atoms: _335  and  _337
REMARK  134  A    between atoms: _337  and  _338
REMARK  135  A    between atoms: _337  and  _340
REMARK  136  A    between atoms: _340  and  _341
REMARK  137  A    between atoms: _344  and  _346
REMARK  138  A    between atoms: _346  and  _347
REMARK  139  A    between atoms: _350  and  _352
REMARK  140  A    between atoms: _352  and  _353
REMARK  141  A    between atoms: _352  and  _355
REMARK  142  A    between atoms: _358  and  _360
REMARK  143  A    between atoms: _360  and  _361
REMARK  144  A    between atoms: _360  and  _363
REMARK  145  A    between atoms: _363  and  _364
REMARK  146  A    between atoms: _369  and  _371
REMARK  147  A    between atoms: _371  and  _372
REMARK  148  A    between atoms: _371  and  _374
REMARK  149  A    between atoms: _374  and  _375
REMARK  150  A    between atoms: _375  and  _376
REMARK  151  A    between atoms: _378  and  _380
REMARK  152  A    between atoms: _380  and  _381
REMARK  153  A    between atoms: _380  and  _383
REMARK  154  A    between atoms: _386  and  _388
REMARK  155  A    between atoms: _388  and  _389
REMARK  156  A    between atoms: _388  and  _391
REMARK  157  A    between atoms: _391  and  _392
REMARK  158  A    between atoms: _395  and  _397
REMARK  159  A    between atoms: _397  and  _398
REMARK  160  A    between atoms: _397  and  _400
REMARK  161  A    between atoms: _400  and  _401
REMARK  162  A    between atoms: _404  and  _406
REMARK  163  A    between atoms: _406  and  _407
REMARK  164  A    between atoms: _406  and  _409
REMARK  165  A    between atoms: _412  and  _414
REMARK  166  A    between atoms: _414  and  _415
REMARK  167  A    between atoms: _418  and  _420
REMARK  168  A    between atoms: _420  and  _421
REMARK  169  A    between atoms: _424  and  _426
REMARK  170  A    between atoms: _426  and  _427
REMARK  171  A    between atoms: _426  and  _429
REMARK  172  A    between atoms: _429  and  _430
REMARK  173  A    between atoms: _433  and  _435
REMARK  174  A    between atoms: _435  and  _436
REMARK  175  A    between atoms: _435  and  _438
REMARK  176  A    between atoms: _438  and  _439
REMARK  177  A    between atoms: _445  and  _447
REMARK  178  A    between atoms: _447  and  _448
REMARK  179  A    between atoms: _447  and  _450
REMARK  180  A    between atoms: _450  and  _451
REMARK  181  A    between atoms: _455  and  _456
REMARK  182  A    between atoms: _461  and  _463
REMARK  183  A    between atoms: _463  and  _464
REMARK  184  A    between atoms: _463  and  _466
REMARK  185  A    between atoms: _466  and  _467
REMARK  186  A    between atoms: _472  and  _474
REMARK  187  A    between atoms: _474  and  _475
REMARK  188  A    between atoms: _474  and  _477
REMARK  189  A    between atoms: _477  and  _478
REMARK  190  A    between atoms: _483  and  _485
REMARK  191  A    between atoms: _485  and  _486
REMARK  192  A    between atoms: _485  and  _488
REMARK  193  A    between atoms: _491  and  _493
REMARK  194  A    between atoms: _493  and  _494
REMARK  195  A    between atoms: _493  and  _496
REMARK  196  A    between atoms: _496  and  _497
REMARK  197  A    between atoms: _497  and  _498
REMARK  198  A    between atoms: _498  and  _499
REMARK  199  A    between atoms: _499  and  _500
REMARK  200  A    between atoms: _504  and  _506
REMARK  201  A    between atoms: _506  and  _507
REMARK  202  A    between atoms: _506  and  _509
REMARK  203  A    between atoms: _509  and  _510
REMARK  204  A    between atoms: _513  and  _515
REMARK  205  A    between atoms: _515  and  _516
REMARK  206  A    between atoms: _519  and  _521
REMARK  207  A    between atoms: _521  and  _522
REMARK  208  A    between atoms: _521  and  _524
REMARK  209  A    between atoms: _527  and  _529
REMARK  210  A    between atoms: _529  and  _530
REMARK  211  A    between atoms: _529  and  _532
REMARK  212  A    between atoms: _532  and  _533
REMARK  213  A    between atoms: _536  and  _538
REMARK  214  A    between atoms: _538  and  _539
REMARK  215  A    between atoms: _538  and  _541
REMARK  216  A    between atoms: _541  and  _542
REMARK  217  A    between atoms: _548  and  _550
REMARK  218  A    between atoms: _550  and  _551
REMARK  219  A    between atoms: _550  and  _553
REMARK  220  A    between atoms: _553  and  _554
REMARK  221  A    between atoms: _557  and  _559
REMARK  222  A    between atoms: _559  and  _560
REMARK  223  A    between atoms: _559  and  _562
REMARK  224  A    between atoms: _562  and  _563
REMARK                            x       y       z     vdW  Elec       q    Type
REMARK                         _______ _______ _______ _____ _____    ______ ____
ROOT
ATOM      1  O   HOH     1      11.518  71.364  50.800  0.00  0.00    +0.000 OA
ENDROOT
TORSDOF 0
REMARK  Name = ../refined-set-2016/4o2b/4o2b_pocket.pdb
REMARK  224 active torsions:
REMARK  status: ('A' for Active; 'I' for Inactive)
REMARK    1  A    between atoms: _1  and  _3
REMARK    2  A    between atoms: _3  and  _4
REMARK    3  A    between atoms: _3  and  _6
REMARK    4  A    between atoms: _6  and  _7
REMARK    5  A    between atoms: _7  and  _8
REMARK    6  A    between atoms: _13  and  _15
REMARK    7  A    between atoms: _15  and  _16
REMARK    8  A    between atoms: _19  and  _21
REMARK    9  A    between atoms: _21  and  _22
REMARK   10  A    between atoms: _21  and  _24
REMARK   11  A    between atoms: _24  and  _25
REMARK   12  A    between atoms: _31  and  _32
REMARK   13  A    between atoms: _37  and  _39
REMARK   14  A    between atoms: _39  and  _40
REMARK   15  A    between atoms: _39  and  _42
REMARK   16  A    between atoms: _45  and  _47
REMARK   17  A    between atoms: _47  and  _48
REMARK   18  A    between atoms: _47  and  _50
REMARK   19  A    between atoms: _50  and  _51
REMARK   20  A    between atoms: _53  and  _55
REMARK   21  A    between atoms: _55  and  _56
REMARK   22  A    between atoms: _55  and  _58
REMARK   23  A    between atoms: _58  and  _59
REMARK   24  A    between atoms: _62  and  _64
REMARK   25  A    between atoms: _64  and  _65
REMARK   26  A    between atoms: _68  and  _70
REMARK   27  A    between atoms: _70  and  _71
REMARK   28  A    between atoms: _70  and  _73
REMARK   29  A    between atoms: _76  and  _78
REMARK   30  A    between atoms: _78  and  _79
REMARK   31  A    between atoms: _78  and  _81
REMARK   32  A    between atoms: _84  and  _86
REMARK   33  A    between atoms: _86  and  _87
REMARK   34  A    between atoms: _86  and  _89
REMARK   35  A    between atoms: _89  and  _90
REMARK   36  A    between atoms: _90  and  _91
REMARK   37  A    between atoms: _94  and  _96
REMARK   38  A    between atoms: _96  and  _97
REMARK   39  A    between atoms: _96  and  _99
REMARK   40  A    between atoms: _99  and  _100
REMARK   41  A    between atoms: _105  and  _106
REMARK   42  A    between atoms: _108  and  _110
REMARK   43  A    between atoms: _110  and  _111
REMARK   44  A    between atoms: _110  and  _113
REMARK   45  A    between atoms: _113  and  _114
REMARK   46  A    between atoms: _120  and  _122
REMARK   47  A    between atoms: _122  and  _123
REMARK   48  A    between atoms: _122  and  _125
REMARK   49  A    between atoms: _125  and  _126
REMARK   50  A    between atoms: _126  and  _127
REMARK   51  A    between atoms: _127  and  _128
REMARK   52  A    between atoms: _137  and  _139
REMARK   53  A    between atoms: _139  and  _140
REMARK   54  A    between atoms: _139  and  _142
REMARK   55  A    between atoms: _142  and  _143
REMARK   56  A    between atoms: _143  and  _144
REMARK   57  A    between atoms: _149  and  _151
REMARK   58  A    between atoms: _151  and  _152
REMARK   59  A    between atoms: _151  and  _154
REMARK   60  A    between atoms: _154  and  _155
REMARK   61  A    between atoms: _155  and  _156
REMARK   62  A    between atoms: _159  and  _161
REMARK   63  A    between atoms: _161  and  _162
REMARK   64  A    between atoms: _161  and  _164
REMARK   65  A    between atoms: _164  and  _165
REMARK   66  A    between atoms: _170  and  _171
REMARK   67  A    between atoms: _173  and  _175
REMARK   68  A    between atoms: _175  and  _176
REMARK   69  A    between atoms: _178  and  _180
REMARK   70  A    between atoms: _180  and  _181
REMARK   71  A    between atoms: _180  and  _183
REMARK   72  A    between atoms: _186  and  _188
REMARK   73  A    between atoms: _188  and  _189
REMARK   74  A    between atoms: _188  and  _191
REMARK   75  A    between atoms: _191  and  _192
REMARK   76  A    between atoms: _195  and  _197
REMARK   77  A    between atoms: _197  and  _198
REMARK   78  A    between atoms: _197  and  _200
REMARK   79  A    between atoms: _200  and  _201
REMARK   80  A    between atoms: _204  and  _206
REMARK   81  A    between atoms: _206  and  _207
REMARK   82  A    between atoms: _206  and  _209
REMARK   83  A    between atoms: _211  and  _213
REMARK   84  A    between atoms: _213  and  _214
REMARK   85  A    between atoms: _213  and  _216
REMARK   86  A    between atoms: _216  and  _217
REMARK   87  A    between atoms: _220  and  _222
REMARK   88  A    between atoms: _222  and  _223
REMARK   89  A    between atoms: _222  and  _225
REMARK   90  A    between atoms: _225  and  _226
REMARK   91  A    between atoms: _226  and  _227
REMARK   92  A    between atoms: _227  and  _228
REMARK   93  A    between atoms: _237  and  _239
REMARK   94  A    between atoms: _239  and  _240
REMARK   95  A    between atoms: _239  and  _242
REMARK   96  A    between atoms: _242  and  _243
REMARK   97  A    between atoms: _249  and  _251
REMARK   98  A    between atoms: _251  and  _252
REMARK   99  A    between atoms: _251  and  _254
REMARK  100  A    between atoms: _254  and  _255
REMARK  101  A    between atoms: _255  and  _256
REMARK  102  A    between atoms: _261  and  _263
REMARK  103  A    between atoms: _263  and  _264
REMARK  104  A    between atoms: _263  and  _266
REMARK  105  A    between atoms: _266  and  _267
REMARK  106  A    between atoms: _270  and  _272
REMARK  107  A    between atoms: _272  and  _273
REMARK  108  A    between atoms: _272  and  _275
REMARK  109  A    between atoms: _275  and  _276
REMARK  110  A    between atoms: _281  and  _283
REMARK  111  A    between atoms: _283  and  _284
REMARK  112  A    between atoms: _287  and  _289
REMARK  113  A    between atoms: _289  and  _290
REMARK  114  A    between atoms: _289  and  _292
REMARK  115  A    between atoms: _292  and  _293
REMARK  116  A    between atoms: _296  and  _298
REMARK  117  A    between atoms: _298  and  _299
REMARK  118  A    between atoms: _298  and  _301
REMARK  119  A    between atoms: _301  and  _302
REMARK  120  A    between atoms: _305  and  _307
REMARK  121  A    between atoms: _307  and  _308
REMARK  122  A    between atoms: _307  and  _310
REMARK  123  A    between atoms: _310  and  _311
REMARK  124  A    between atoms: _311  and  _312
REMARK  125  A    between atoms: _312  and  _313
REMARK  126  A    between atoms: _322  and  _324
REMARK  127  A    between atoms: _324  and  _325
REMARK  128  A    between atoms: _324  and  _327
REMARK  129  A    between atoms: _327  and  _328
REMARK  130  A    between atoms: _328  and  _329
REMARK  131  A    between atoms: _329  and  _330
REMARK  132  A    between atoms: _330  and  _331
REMARK  133  A    between atoms: _335  and  _337
REMARK  134  A    between atoms: _337  and  _338
REMARK  135  A    between atoms: _337  and  _340
REMARK  136  A    between atoms: _340  and  _341
REMARK  137  A    between atoms: _344  and  _346
REMARK  138  A    between atoms: _346  and  _347
REMARK  139  A    between atoms: _350  and  _352
REMARK  140  A    between atoms: _352  and  _353
REMARK  141  A    between atoms: _352  and  _355
REMARK  142  A    between atoms: _358  and  _360
REMARK  143  A    between atoms: _360  and  _361
REMARK  144  A    between atoms: _360  and  _363
REMARK  145  A    between atoms: _363  and  _364
REMARK  146  A    between atoms: _369  and  _371
REMARK  147  A    between atoms: _371  and  _372
REMARK  148  A    between atoms: _371  and  _374
REMARK  149  A    between atoms: _374  and  _375
REMARK  150  A    between atoms: _375  and  _376
REMARK  151  A    between atoms: _378  and  _380
REMARK  152  A    between atoms: _380  and  _381
REMARK  153  A    between atoms: _380  and  _383
REMARK  154  A    between atoms: _386  and  _388
REMARK  155  A    between atoms: _388  and  _389
REMARK  156  A    between atoms: _388  and  _391
REMARK  157  A    between atoms: _391  and  _392
REMARK  158  A    between atoms: _395  and  _397
REMARK  159  A    between atoms: _397  and  _398
REMARK  160  A    between atoms: _397  and  _400
REMARK  161  A    between atoms: _400  and  _401
REMARK  162  A    between atoms: _404  and  _406
REMARK  163  A    between atoms: _406  and  _407
REMARK  164  A    between atoms: _406  and  _409
REMARK  165  A    between atoms: _412  and  _414
REMARK  166  A    between atoms: _414  and  _415
REMARK  167  A    between atoms: _418  and  _420
REMARK  168  A    between atoms: _420  and  _421
REMARK  169  A    between atoms: _424  and  _426
REMARK  170  A    between atoms: _426  and  _427
REMARK  171  A    between atoms: _426  and  _429
REMARK  172  A    between atoms: _429  and  _430
REMARK  173  A    between atoms: _433  and  _435
REMARK  174  A    between atoms: _435  and  _436
REMARK  175  A    between atoms: _435  and  _438
REMARK  176  A    between atoms: _438  and  _439
REMARK  177  A    between atoms: _445  and  _447
REMARK  178  A    between atoms: _447  and  _448
REMARK  179  A    between atoms: _447  and  _450
REMARK  180  A    between atoms: _450  and  _451
REMARK  181  A    between atoms: _455  and  _456
REMARK  182  A    between atoms: _461  and  _463
REMARK  183  A    between atoms: _463  and  _464
REMARK  184  A    between atoms: _463  and  _466
REMARK  185  A    between atoms: _466  and  _467
REMARK  186  A    between atoms: _472  and  _474
REMARK  187  A    between atoms: _474  and  _475
REMARK  188  A    between atoms: _474  and  _477
REMARK  189  A    between atoms: _477  and  _478
REMARK  190  A    between atoms: _483  and  _485
REMARK  191  A    between atoms: _485  and  _486
REMARK  192  A    between atoms: _485  and  _488
REMARK  193  A    between atoms: _491  and  _493
REMARK  194  A    between atoms: _493  and  _494
REMARK  195  A    between atoms: _493  and  _496
REMARK  196  A    between atoms: _496  and  _497
REMARK  197  A    between atoms: _497  and  _498
REMARK  198  A    between atoms: _498  and  _499
REMARK  199  A    between atoms: _499  and  _500
REMARK  200  A    between atoms: _504  and  _506
REMARK  201  A    between atoms: _506  and  _507
REMARK  202  A    between atoms: _506  and  _509
REMARK  203  A    between atoms: _509  and  _510
REMARK  204  A    between atoms: _513  and  _515
REMARK  205  A    between atoms: _515  and  _516
REMARK  206  A    between atoms: _519  and  _521
REMARK  207  A    between atoms: _521  and  _522
REMARK  208  A    between atoms: _521  and  _524
REMARK  209  A    between atoms: _527  and  _529
REMARK  210  A    between atoms: _529  and  _530
REMARK  211  A    between atoms: _529  and  _532
REMARK  212  A    between atoms: _532  and  _533
REMARK  213  A    between atoms: _536  and  _538
REMARK  214  A    between atoms: _538  and  _539
REMARK  215  A    between atoms: _538  and  _541
REMARK  216  A    between atoms: _541  and  _542
REMARK  217  A    between atoms: _548  and  _550
REMARK  218  A    between atoms: _550  and  _551
REMARK  219  A    between atoms: _550  and  _553
REMARK  220  A    between atoms: _553  and  _554
REMARK  221  A    between atoms: _557  and  _559
REMARK  222  A    between atoms: _559  and  _560
REMARK  223  A    between atoms: _559  and  _562
REMARK  224  A    between atoms: _562  and  _563
REMARK                            x       y       z     vdW  Elec       q    Type
REMARK                         _______ _______ _______ _____ _____    ______ ____
ROOT
ATOM      1  O   HOH     1      24.367  71.867  40.413  0.00  0.00    +0.000 OA
ENDROOT
TORSDOF 0
REMARK  Name = ../refined-set-2016/4o2b/4o2b_pocket.pdb
REMARK  224 active torsions:
REMARK  status: ('A' for Active; 'I' for Inactive)
REMARK    1  A    between atoms: _1  and  _3
REMARK    2  A    between atoms: _3  and  _4
REMARK    3  A    between atoms: _3  and  _6
REMARK    4  A    between atoms: _6  and  _7
REMARK    5  A    between atoms: _7  and  _8
REMARK    6  A    between atoms: _13  and  _15
REMARK    7  A    between atoms: _15  and  _16
REMARK    8  A    between atoms: _19  and  _21
REMARK    9  A    between atoms: _21  and  _22
REMARK   10  A    between atoms: _21  and  _24
REMARK   11  A    between atoms: _24  and  _25
REMARK   12  A    between atoms: _31  and  _32
REMARK   13  A    between atoms: _37  and  _39
REMARK   14  A    between atoms: _39  and  _40
REMARK   15  A    between atoms: _39  and  _42
REMARK   16  A    between atoms: _45  and  _47
REMARK   17  A    between atoms: _47  and  _48
REMARK   18  A    between atoms: _47  and  _50
REMARK   19  A    between atoms: _50  and  _51
REMARK   20  A    between atoms: _53  and  _55
REMARK   21  A    between atoms: _55  and  _56
REMARK   22  A    between atoms: _55  and  _58
REMARK   23  A    between atoms: _58  and  _59
REMARK   24  A    between atoms: _62  and  _64
REMARK   25  A    between atoms: _64  and  _65
REMARK   26  A    between atoms: _68  and  _70
REMARK   27  A    between atoms: _70  and  _71
REMARK   28  A    between atoms: _70  and  _73
REMARK   29  A    between atoms: _76  and  _78
REMARK   30  A    between atoms: _78  and  _79
REMARK   31  A    between atoms: _78  and  _81
REMARK   32  A    between atoms: _84  and  _86
REMARK   33  A    between atoms: _86  and  _87
REMARK   34  A    between atoms: _86  and  _89
REMARK   35  A    between atoms: _89  and  _90
REMARK   36  A    between atoms: _90  and  _91
REMARK   37  A    between atoms: _94  and  _96
REMARK   38  A    between atoms: _96  and  _97
REMARK   39  A    between atoms: _96  and  _99
REMARK   40  A    between atoms: _99  and  _100
REMARK   41  A    between atoms: _105  and  _106
REMARK   42  A    between atoms: _108  and  _110
REMARK   43  A    between atoms: _110  and  _111
REMARK   44  A    between atoms: _110  and  _113
REMARK   45  A    between atoms: _113  and  _114
REMARK   46  A    between atoms: _120  and  _122
REMARK   47  A    between atoms: _122  and  _123
REMARK   48  A    between atoms: _122  and  _125
REMARK   49  A    between atoms: _125  and  _126
REMARK   50  A    between atoms: _126  and  _127
REMARK   51  A    between atoms: _127  and  _128
REMARK   52  A    between atoms: _137  and  _139
REMARK   53  A    between atoms: _139  and  _140
REMARK   54  A    between atoms: _139  and  _142
REMARK   55  A    between atoms: _142  and  _143
REMARK   56  A    between atoms: _143  and  _144
REMARK   57  A    between atoms: _149  and  _151
REMARK   58  A    between atoms: _151  and  _152
REMARK   59  A    between atoms: _151  and  _154
REMARK   60  A    between atoms: _154  and  _155
REMARK   61  A    between atoms: _155  and  _156
REMARK   62  A    between atoms: _159  and  _161
REMARK   63  A    between atoms: _161  and  _162
REMARK   64  A    between atoms: _161  and  _164
REMARK   65  A    between atoms: _164  and  _165
REMARK   66  A    between atoms: _170  and  _171
REMARK   67  A    between atoms: _173  and  _175
REMARK   68  A    between atoms: _175  and  _176
REMARK   69  A    between atoms: _178  and  _180
REMARK   70  A    between atoms: _180  and  _181
REMARK   71  A    between atoms: _180  and  _183
REMARK   72  A    between atoms: _186  and  _188
REMARK   73  A    between atoms: _188  and  _189
REMARK   74  A    between atoms: _188  and  _191
REMARK   75  A    between atoms: _191  and  _192
REMARK   76  A    between atoms: _195  and  _197
REMARK   77  A    between atoms: _197  and  _198
REMARK   78  A    between atoms: _197  and  _200
REMARK   79  A    between atoms: _200  and  _201
REMARK   80  A    between atoms: _204  and  _206
REMARK   81  A    between atoms: _206  and  _207
REMARK   82  A    between atoms: _206  and  _209
REMARK   83  A    between atoms: _211  and  _213
REMARK   84  A    between atoms: _213  and  _214
REMARK   85  A    between atoms: _213  and  _216
REMARK   86  A    between atoms: _216  and  _217
REMARK   87  A    between atoms: _220  and  _222
REMARK   88  A    between atoms: _222  and  _223
REMARK   89  A    between atoms: _222  and  _225
REMARK   90  A    between atoms: _225  and  _226
REMARK   91  A    between atoms: _226  and  _227
REMARK   92  A    between atoms: _227  and  _228
REMARK   93  A    between atoms: _237  and  _239
REMARK   94  A    between atoms: _239  and  _240
REMARK   95  A    between atoms: _239  and  _242
REMARK   96  A    between atoms: _242  and  _243
REMARK   97  A    between atoms: _249  and  _251
REMARK   98  A    between atoms: _251  and  _252
REMARK   99  A    between atoms: _251  and  _254
REMARK  100  A    between atoms: _254  and  _255
REMARK  101  A    between atoms: _255  and  _256
REMARK  102  A    between atoms: _261  and  _263
REMARK  103  A    between atoms: _263  and  _264
REMARK  104  A    between atoms: _263  and  _266
REMARK  105  A    between atoms: _266  and  _267
REMARK  106  A    between atoms: _270  and  _272
REMARK  107  A    between atoms: _272  and  _273
REMARK  108  A    between atoms: _272  and  _275
REMARK  109  A    between atoms: _275  and  _276
REMARK  110  A    between atoms: _281  and  _283
REMARK  111  A    between atoms: _283  and  _284
REMARK  112  A    between atoms: _287  and  _289
REMARK  113  A    between atoms: _289  and  _290
REMARK  114  A    between atoms: _289  and  _292
REMARK  115  A    between atoms: _292  and  _293
REMARK  116  A    between atoms: _296  and  _298
REMARK  117  A    between atoms: _298  and  _299
REMARK  118  A    between atoms: _298  and  _301
REMARK  119  A    between atoms: _301  and  _302
REMARK  120  A    between atoms: _305  and  _307
REMARK  121  A    between atoms: _307  and  _308
REMARK  122  A    between atoms: _307  and  _310
REMARK  123  A    between atoms: _310  and  _311
REMARK  124  A    between atoms: _311  and  _312
REMARK  125  A    between atoms: _312  and  _313
REMARK  126  A    between atoms: _322  and  _324
REMARK  127  A    between atoms: _324  and  _325
REMARK  128  A    between atoms: _324  and  _327
REMARK  129  A    between atoms: _327  and  _328
REMARK  130  A    between atoms: _328  and  _329
REMARK  131  A    between atoms: _329  and  _330
REMARK  132  A    between atoms: _330  and  _331
REMARK  133  A    between atoms: _335  and  _337
REMARK  134  A    between atoms: _337  and  _338
REMARK  135  A    between atoms: _337  and  _340
REMARK  136  A    between atoms: _340  and  _341
REMARK  137  A    between atoms: _344  and  _346
REMARK  138  A    between atoms: _346  and  _347
REMARK  139  A    between atoms: _350  and  _352
REMARK  140  A    between atoms: _352  and  _353
REMARK  141  A    between atoms: _352  and  _355
REMARK  142  A    between atoms: _358  and  _360
REMARK  143  A    between atoms: _360  and  _361
REMARK  144  A    between atoms: _360  and  _363
REMARK  145  A    between atoms: _363  and  _364
REMARK  146  A    between atoms: _369  and  _371
REMARK  147  A    between atoms: _371  and  _372
REMARK  148  A    between atoms: _371  and  _374
REMARK  149  A    between atoms: _374  and  _375
REMARK  150  A    between atoms: _375  and  _376
REMARK  151  A    between atoms: _378  and  _380
REMARK  152  A    between atoms: _380  and  _381
REMARK  153  A    between atoms: _380  and  _383
REMARK  154  A    between atoms: _386  and  _388
REMARK  155  A    between atoms: _388  and  _389
REMARK  156  A    between atoms: _388  and  _391
REMARK  157  A    between atoms: _391  and  _392
REMARK  158  A    between atoms: _395  and  _397
REMARK  159  A    between atoms: _397  and  _398
REMARK  160  A    between atoms: _397  and  _400
REMARK  161  A    between atoms: _400  and  _401
REMARK  162  A    between atoms: _404  and  _406
REMARK  163  A    between atoms: _406  and  _407
REMARK  164  A    between atoms: _406  and  _409
REMARK  165  A    between atoms: _412  and  _414
REMARK  166  A    between atoms: _414  and  _415
REMARK  167  A    between atoms: _418  and  _420
REMARK  168  A    between atoms: _420  and  _421
REMARK  169  A    between atoms: _424  and  _426
REMARK  170  A    between atoms: _426  and  _427
REMARK  171  A    between atoms: _426  and  _429
REMARK  172  A    between atoms: _429  and  _430
REMARK  173  A    between atoms: _433  and  _435
REMARK  174  A    between atoms: _435  and  _436
REMARK  175  A    between atoms: _435  and  _438
REMARK  176  A    between atoms: _438  and  _439
REMARK  177  A    between atoms: _445  and  _447
REMARK  178  A    between atoms: _447  and  _448
REMARK  179  A    between atoms: _447  and  _450
REMARK  180  A    between atoms: _450  and  _451
REMARK  181  A    between atoms: _455  and  _456
REMARK  182  A    between atoms: _461  and  _463
REMARK  183  A    between atoms: _463  and  _464
REMARK  184  A    between atoms: _463  and  _466
REMARK  185  A    between atoms: _466  and  _467
REMARK  186  A    between atoms: _472  and  _474
REMARK  187  A    between atoms: _474  and  _475
REMARK  188  A    between atoms: _474  and  _477
REMARK  189  A    between atoms: _477  and  _478
REMARK  190  A    between atoms: _483  and  _485
REMARK  191  A    between atoms: _485  and  _486
REMARK  192  A    between atoms: _485  and  _488
REMARK  193  A    between atoms: _491  and  _493
REMARK  194  A    between atoms: _493  and  _494
REMARK  195  A    between atoms: _493  and  _496
REMARK  196  A    between atoms: _496  and  _497
REMARK  197  A    between atoms: _497  and  _498
REMARK  198  A    between atoms: _498  and  _499
REMARK  199  A    between atoms: _499  and  _500
REMARK  200  A    between atoms: _504  and  _506
REMARK  201  A    between atoms: _506  and  _507
REMARK  202  A    between atoms: _506  and  _509
REMARK  203  A    between atoms: _509  and  _510
REMARK  204  A    between atoms: _513  and  _515
REMARK  205  A    between atoms: _515  and  _516
REMARK  206  A    between atoms: _519  and  _521
REMARK  207  A    between atoms: _521  and  _522
REMARK  208  A    between atoms: _521  and  _524
REMARK  209  A    between atoms: _527  and  _529
REMARK  210  A    between atoms: _529  and  _530
REMARK  211  A    between atoms: _529  and  _532
REMARK  212  A    between atoms: _532  and  _533
REMARK  213  A    between atoms: _536  and  _538
REMARK  214  A    between atoms: _538  and  _539
REMARK  215  A    between atoms: _538  and  _541
REMARK  216  A    between atoms: _541  and  _542
REMARK  217  A    between atoms: _548  and  _550
REMARK  218  A    between atoms: _550  and  _551
REMARK  219  A    between atoms: _550  and  _553
REMARK  220  A    between atoms: _553  and  _554
REMARK  221  A    between atoms: _557  and  _559
REMARK  222  A    between atoms: _559  and  _560
REMARK  223  A    between atoms: _559  and  _562
REMARK  224  A    between atoms: _562  and  _563
REMARK                            x       y       z     vdW  Elec       q    Type
REMARK                         _______ _______ _______ _____ _____    ______ ____
ROOT
ATOM      1  O   HOH     1      19.712  72.769  36.572  0.00  0.00    +0.000 OA
ENDROOT
TORSDOF 0
REMARK  Name = ../refined-set-2016/4o2b/4o2b_pocket.pdb
REMARK  224 active torsions:
REMARK  status: ('A' for Active; 'I' for Inactive)
REMARK    1  A    between atoms: _1  and  _3
REMARK    2  A    between atoms: _3  and  _4
REMARK    3  A    between atoms: _3  and  _6
REMARK    4  A    between atoms: _6  and  _7
REMARK    5  A    between atoms: _7  and  _8
REMARK    6  A    between atoms: _13  and  _15
REMARK    7  A    between atoms: _15  and  _16
REMARK    8  A    between atoms: _19  and  _21
REMARK    9  A    between atoms: _21  and  _22
REMARK   10  A    between atoms: _21  and  _24
REMARK   11  A    between atoms: _24  and  _25
REMARK   12  A    between atoms: _31  and  _32
REMARK   13  A    between atoms: _37  and  _39
REMARK   14  A    between atoms: _39  and  _40
REMARK   15  A    between atoms: _39  and  _42
REMARK   16  A    between atoms: _45  and  _47
REMARK   17  A    between atoms: _47  and  _48
REMARK   18  A    between atoms: _47  and  _50
REMARK   19  A    between atoms: _50  and  _51
REMARK   20  A    between atoms: _53  and  _55
REMARK   21  A    between atoms: _55  and  _56
REMARK   22  A    between atoms: _55  and  _58
REMARK   23  A    between atoms: _58  and  _59
REMARK   24  A    between atoms: _62  and  _64
REMARK   25  A    between atoms: _64  and  _65
REMARK   26  A    between atoms: _68  and  _70
REMARK   27  A    between atoms: _70  and  _71
REMARK   28  A    between atoms: _70  and  _73
REMARK   29  A    between atoms: _76  and  _78
REMARK   30  A    between atoms: _78  and  _79
REMARK   31  A    between atoms: _78  and  _81
REMARK   32  A    between atoms: _84  and  _86
REMARK   33  A    between atoms: _86  and  _87
REMARK   34  A    between atoms: _86  and  _89
REMARK   35  A    between atoms: _89  and  _90
REMARK   36  A    between atoms: _90  and  _91
REMARK   37  A    between atoms: _94  and  _96
REMARK   38  A    between atoms: _96  and  _97
REMARK   39  A    between atoms: _96  and  _99
REMARK   40  A    between atoms: _99  and  _100
REMARK   41  A    between atoms: _105  and  _106
REMARK   42  A    between atoms: _108  and  _110
REMARK   43  A    between atoms: _110  and  _111
REMARK   44  A    between atoms: _110  and  _113
REMARK   45  A    between atoms: _113  and  _114
REMARK   46  A    between atoms: _120  and  _122
REMARK   47  A    between atoms: _122  and  _123
REMARK   48  A    between atoms: _122  and  _125
REMARK   49  A    between atoms: _125  and  _126
REMARK   50  A    between atoms: _126  and  _127
REMARK   51  A    between atoms: _127  and  _128
REMARK   52  A    between atoms: _137  and  _139
REMARK   53  A    between atoms: _139  and  _140
REMARK   54  A    between atoms: _139  and  _142
REMARK   55  A    between atoms: _142  and  _143
REMARK   56  A    between atoms: _143  and  _144
REMARK   57  A    between atoms: _149  and  _151
REMARK   58  A    between atoms: _151  and  _152
REMARK   59  A    between atoms: _151  and  _154
REMARK   60  A    between atoms: _154  and  _155
REMARK   61  A    between atoms: _155  and  _156
REMARK   62  A    between atoms: _159  and  _161
REMARK   63  A    between atoms: _161  and  _162
REMARK   64  A    between atoms: _161  and  _164
REMARK   65  A    between atoms: _164  and  _165
REMARK   66  A    between atoms: _170  and  _171
REMARK   67  A    between atoms: _173  and  _175
REMARK   68  A    between atoms: _175  and  _176
REMARK   69  A    between atoms: _178  and  _180
REMARK   70  A    between atoms: _180  and  _181
REMARK   71  A    between atoms: _180  and  _183
REMARK   72  A    between atoms: _186  and  _188
REMARK   73  A    between atoms: _188  and  _189
REMARK   74  A    between atoms: _188  and  _191
REMARK   75  A    between atoms: _191  and  _192
REMARK   76  A    between atoms: _195  and  _197
REMARK   77  A    between atoms: _197  and  _198
REMARK   78  A    between atoms: _197  and  _200
REMARK   79  A    between atoms: _200  and  _201
REMARK   80  A    between atoms: _204  and  _206
REMARK   81  A    between atoms: _206  and  _207
REMARK   82  A    between atoms: _206  and  _209
REMARK   83  A    between atoms: _211  and  _213
REMARK   84  A    between atoms: _213  and  _214
REMARK   85  A    between atoms: _213  and  _216
REMARK   86  A    between atoms: _216  and  _217
REMARK   87  A    between atoms: _220  and  _222
REMARK   88  A    between atoms: _222  and  _223
REMARK   89  A    between atoms: _222  and  _225
REMARK   90  A    between atoms: _225  and  _226
REMARK   91  A    between atoms: _226  and  _227
REMARK   92  A    between atoms: _227  and  _228
REMARK   93  A    between atoms: _237  and  _239
REMARK   94  A    between atoms: _239  and  _240
REMARK   95  A    between atoms: _239  and  _242
REMARK   96  A    between atoms: _242  and  _243
REMARK   97  A    between atoms: _249  and  _251
REMARK   98  A    between atoms: _251  and  _252
REMARK   99  A    between atoms: _251  and  _254
REMARK  100  A    between atoms: _254  and  _255
REMARK  101  A    between atoms: _255  and  _256
REMARK  102  A    between atoms: _261  and  _263
REMARK  103  A    between atoms: _263  and  _264
REMARK  104  A    between atoms: _263  and  _266
REMARK  105  A    between atoms: _266  and  _267
REMARK  106  A    between atoms: _270  and  _272
REMARK  107  A    between atoms: _272  and  _273
REMARK  108  A    between atoms: _272  and  _275
REMARK  109  A    between atoms: _275  and  _276
REMARK  110  A    between atoms: _281  and  _283
REMARK  111  A    between atoms: _283  and  _284
REMARK  112  A    between atoms: _287  and  _289
REMARK  113  A    between atoms: _289  and  _290
REMARK  114  A    between atoms: _289  and  _292
REMARK  115  A    between atoms: _292  and  _293
REMARK  116  A    between atoms: _296  and  _298
REMARK  117  A    between atoms: _298  and  _299
REMARK  118  A    between atoms: _298  and  _301
REMARK  119  A    between atoms: _301  and  _302
REMARK  120  A    between atoms: _305  and  _307
REMARK  121  A    between atoms: _307  and  _308
REMARK  122  A    between atoms: _307  and  _310
REMARK  123  A    between atoms: _310  and  _311
REMARK  124  A    between atoms: _311  and  _312
REMARK  125  A    between atoms: _312  and  _313
REMARK  126  A    between atoms: _322  and  _324
REMARK  127  A    between atoms: _324  and  _325
REMARK  128  A    between atoms: _324  and  _327
REMARK  129  A    between atoms: _327  and  _328
REMARK  130  A    between atoms: _328  and  _329
REMARK  131  A    between atoms: _329  and  _330
REMARK  132  A    between atoms: _330  and  _331
REMARK  133  A    between atoms: _335  and  _337
REMARK  134  A    between atoms: _337  and  _338
REMARK  135  A    between atoms: _337  and  _340
REMARK  136  A    between atoms: _340  and  _341
REMARK  137  A    between atoms: _344  and  _346
REMARK  138  A    between atoms: _346  and  _347
REMARK  139  A    between atoms: _350  and  _352
REMARK  140  A    between atoms: _352  and  _353
REMARK  141  A    between atoms: _352  and  _355
REMARK  142  A    between atoms: _358  and  _360
REMARK  143  A    between atoms: _360  and  _361
REMARK  144  A    between atoms: _360  and  _363
REMARK  145  A    between atoms: _363  and  _364
REMARK  146  A    between atoms: _369  and  _371
REMARK  147  A    between atoms: _371  and  _372
REMARK  148  A    between atoms: _371  and  _374
REMARK  149  A    between atoms: _374  and  _375
REMARK  150  A    between atoms: _375  and  _376
REMARK  151  A    between atoms: _378  and  _380
REMARK  152  A    between atoms: _380  and  _381
REMARK  153  A    between atoms: _380  and  _383
REMARK  154  A    between atoms: _386  and  _388
REMARK  155  A    between atoms: _388  and  _389
REMARK  156  A    between atoms: _388  and  _391
REMARK  157  A    between atoms: _391  and  _392
REMARK  158  A    between atoms: _395  and  _397
REMARK  159  A    between atoms: _397  and  _398
REMARK  160  A    between atoms: _397  and  _400
REMARK  161  A    between atoms: _400  and  _401
REMARK  162  A    between atoms: _404  and  _406
REMARK  163  A    between atoms: _406  and  _407
REMARK  164  A    between atoms: _406  and  _409
REMARK  165  A    between atoms: _412  and  _414
REMARK  166  A    between atoms: _414  and  _415
REMARK  167  A    between atoms: _418  and  _420
REMARK  168  A    between atoms: _420  and  _421
REMARK  169  A    between atoms: _424  and  _426
REMARK  170  A    between atoms: _426  and  _427
REMARK  171  A    between atoms: _426  and  _429
REMARK  172  A    between atoms: _429  and  _430
REMARK  173  A    between atoms: _433  and  _435
REMARK  174  A    between atoms: _435  and  _436
REMARK  175  A    between atoms: _435  and  _438
REMARK  176  A    between atoms: _438  and  _439
REMARK  177  A    between atoms: _445  and  _447
REMARK  178  A    between atoms: _447  and  _448
REMARK  179  A    between atoms: _447  and  _450
REMARK  180  A    between atoms: _450  and  _451
REMARK  181  A    between atoms: _455  and  _456
REMARK  182  A    between atoms: _461  and  _463
REMARK  183  A    between atoms: _463  and  _464
REMARK  184  A    between atoms: _463  and  _466
REMARK  185  A    between atoms: _466  and  _467
REMARK  186  A    between atoms: _472  and  _474
REMARK  187  A    between atoms: _474  and  _475
REMARK  188  A    between atoms: _474  and  _477
REMARK  189  A    between atoms: _477  and  _478
REMARK  190  A    between atoms: _483  and  _485
REMARK  191  A    between atoms: _485  and  _486
REMARK  192  A    between atoms: _485  and  _488
REMARK  193  A    between atoms: _491  and  _493
REMARK  194  A    between atoms: _493  and  _494
REMARK  195  A    between atoms: _493  and  _496
REMARK  196  A    between atoms: _496  and  _497
REMARK  197  A    between atoms: _497  and  _498
REMARK  198  A    between atoms: _498  and  _499
REMARK  199  A    between atoms: _499  and  _500
REMARK  200  A    between atoms: _504  and  _506
REMARK  201  A    between atoms: _506  and  _507
REMARK  202  A    between atoms: _506  and  _509
REMARK  203  A    between atoms: _509  and  _510
REMARK  204  A    between atoms: _513  and  _515
REMARK  205  A    between atoms: _515  and  _516
REMARK  206  A    between atoms: _519  and  _521
REMARK  207  A    between atoms: _521  and  _522
REMARK  208  A    between atoms: _521  and  _524
REMARK  209  A    between atoms: _527  and  _529
REMARK  210  A    between atoms: _529  and  _530
REMARK  211  A    between atoms: _529  and  _532
REMARK  212  A    between atoms: _532  and  _533
REMARK  213  A    between atoms: _536  and  _538
REMARK  214  A    between atoms: _538  and  _539
REMARK  215  A    between atoms: _538  and  _541
REMARK  216  A    between atoms: _541  and  _542
REMARK  217  A    between atoms: _548  and  _550
REMARK  218  A    between atoms: _550  and  _551
REMARK  219  A    between atoms: _550  and  _553
REMARK  220  A    between atoms: _553  and  _554
REMARK  221  A    between atoms: _557  and  _559
REMARK  222  A    between atoms: _559  and  _560
REMARK  223  A    between atoms: _559  and  _562
REMARK  224  A    between atoms: _562  and  _563
REMARK                            x       y       z     vdW  Elec       q    Type
REMARK                         _______ _______ _______ _____ _____    ______ ____
ROOT
ATOM      1  O   HOH     1      10.653  66.759  49.395  0.00  0.00    +0.000 OA
ENDROOT
TORSDOF 0
REMARK  Name = ../refined-set-2016/4o2b/4o2b_pocket.pdb
REMARK  224 active torsions:
REMARK  status: ('A' for Active; 'I' for Inactive)
REMARK    1  A    between atoms: _1  and  _3
REMARK    2  A    between atoms: _3  and  _4
REMARK    3  A    between atoms: _3  and  _6
REMARK    4  A    between atoms: _6  and  _7
REMARK    5  A    between atoms: _7  and  _8
REMARK    6  A    between atoms: _13  and  _15
REMARK    7  A    between atoms: _15  and  _16
REMARK    8  A    between atoms: _19  and  _21
REMARK    9  A    between atoms: _21  and  _22
REMARK   10  A    between atoms: _21  and  _24
REMARK   11  A    between atoms: _24  and  _25
REMARK   12  A    between atoms: _31  and  _32
REMARK   13  A    between atoms: _37  and  _39
REMARK   14  A    between atoms: _39  and  _40
REMARK   15  A    between atoms: _39  and  _42
REMARK   16  A    between atoms: _45  and  _47
REMARK   17  A    between atoms: _47  and  _48
REMARK   18  A    between atoms: _47  and  _50
REMARK   19  A    between atoms: _50  and  _51
REMARK   20  A    between atoms: _53  and  _55
REMARK   21  A    between atoms: _55  and  _56
REMARK   22  A    between atoms: _55  and  _58
REMARK   23  A    between atoms: _58  and  _59
REMARK   24  A    between atoms: _62  and  _64
REMARK   25  A    between atoms: _64  and  _65
REMARK   26  A    between atoms: _68  and  _70
REMARK   27  A    between atoms: _70  and  _71
REMARK   28  A    between atoms: _70  and  _73
REMARK   29  A    between atoms: _76  and  _78
REMARK   30  A    between atoms: _78  and  _79
REMARK   31  A    between atoms: _78  and  _81
REMARK   32  A    between atoms: _84  and  _86
REMARK   33  A    between atoms: _86  and  _87
REMARK   34  A    between atoms: _86  and  _89
REMARK   35  A    between atoms: _89  and  _90
REMARK   36  A    between atoms: _90  and  _91
REMARK   37  A    between atoms: _94  and  _96
REMARK   38  A    between atoms: _96  and  _97
REMARK   39  A    between atoms: _96  and  _99
REMARK   40  A    between atoms: _99  and  _100
REMARK   41  A    between atoms: _105  and  _106
REMARK   42  A    between atoms: _108  and  _110
REMARK   43  A    between atoms: _110  and  _111
REMARK   44  A    between atoms: _110  and  _113
REMARK   45  A    between atoms: _113  and  _114
REMARK   46  A    between atoms: _120  and  _122
REMARK   47  A    between atoms: _122  and  _123
REMARK   48  A    between atoms: _122  and  _125
REMARK   49  A    between atoms: _125  and  _126
REMARK   50  A    between atoms: _126  and  _127
REMARK   51  A    between atoms: _127  and  _128
REMARK   52  A    between atoms: _137  and  _139
REMARK   53  A    between atoms: _139  and  _140
REMARK   54  A    between atoms: _139  and  _142
REMARK   55  A    between atoms: _142  and  _143
REMARK   56  A    between atoms: _143  and  _144
REMARK   57  A    between atoms: _149  and  _151
REMARK   58  A    between atoms: _151  and  _152
REMARK   59  A    between atoms: _151  and  _154
REMARK   60  A    between atoms: _154  and  _155
REMARK   61  A    between atoms: _155  and  _156
REMARK   62  A    between atoms: _159  and  _161
REMARK   63  A    between atoms: _161  and  _162
REMARK   64  A    between atoms: _161  and  _164
REMARK   65  A    between atoms: _164  and  _165
REMARK   66  A    between atoms: _170  and  _171
REMARK   67  A    between atoms: _173  and  _175
REMARK   68  A    between atoms: _175  and  _176
REMARK   69  A    between atoms: _178  and  _180
REMARK   70  A    between atoms: _180  and  _181
REMARK   71  A    between atoms: _180  and  _183
REMARK   72  A    between atoms: _186  and  _188
REMARK   73  A    between atoms: _188  and  _189
REMARK   74  A    between atoms: _188  and  _191
REMARK   75  A    between atoms: _191  and  _192
REMARK   76  A    between atoms: _195  and  _197
REMARK   77  A    between atoms: _197  and  _198
REMARK   78  A    between atoms: _197  and  _200
REMARK   79  A    between atoms: _200  and  _201
REMARK   80  A    between atoms: _204  and  _206
REMARK   81  A    between atoms: _206  and  _207
REMARK   82  A    between atoms: _206  and  _209
REMARK   83  A    between atoms: _211  and  _213
REMARK   84  A    between atoms: _213  and  _214
REMARK   85  A    between atoms: _213  and  _216
REMARK   86  A    between atoms: _216  and  _217
REMARK   87  A    between atoms: _220  and  _222
REMARK   88  A    between atoms: _222  and  _223
REMARK   89  A    between atoms: _222  and  _225
REMARK   90  A    between atoms: _225  and  _226
REMARK   91  A    between atoms: _226  and  _227
REMARK   92  A    between atoms: _227  and  _228
REMARK   93  A    between atoms: _237  and  _239
REMARK   94  A    between atoms: _239  and  _240
REMARK   95  A    between atoms: _239  and  _242
REMARK   96  A    between atoms: _242  and  _243
REMARK   97  A    between atoms: _249  and  _251
REMARK   98  A    between atoms: _251  and  _252
REMARK   99  A    between atoms: _251  and  _254
REMARK  100  A    between atoms: _254  and  _255
REMARK  101  A    between atoms: _255  and  _256
REMARK  102  A    between atoms: _261  and  _263
REMARK  103  A    between atoms: _263  and  _264
REMARK  104  A    between atoms: _263  and  _266
REMARK  105  A    between atoms: _266  and  _267
REMARK  106  A    between atoms: _270  and  _272
REMARK  107  A    between atoms: _272  and  _273
REMARK  108  A    between atoms: _272  and  _275
REMARK  109  A    between atoms: _275  and  _276
REMARK  110  A    between atoms: _281  and  _283
REMARK  111  A    between atoms: _283  and  _284
REMARK  112  A    between atoms: _287  and  _289
REMARK  113  A    between atoms: _289  and  _290
REMARK  114  A    between atoms: _289  and  _292
REMARK  115  A    between atoms: _292  and  _293
REMARK  116  A    between atoms: _296  and  _298
REMARK  117  A    between atoms: _298  and  _299
REMARK  118  A    between atoms: _298  and  _301
REMARK  119  A    between atoms: _301  and  _302
REMARK  120  A    between atoms: _305  and  _307
REMARK  121  A    between atoms: _307  and  _308
REMARK  122  A    between atoms: _307  and  _310
REMARK  123  A    between atoms: _310  and  _311
REMARK  124  A    between atoms: _311  and  _312
REMARK  125  A    between atoms: _312  and  _313
REMARK  126  A    between atoms: _322  and  _324
REMARK  127  A    between atoms: _324  and  _325
REMARK  128  A    between atoms: _324  and  _327
REMARK  129  A    between atoms: _327  and  _328
REMARK  130  A    between atoms: _328  and  _329
REMARK  131  A    between atoms: _329  and  _330
REMARK  132  A    between atoms: _330  and  _331
REMARK  133  A    between atoms: _335  and  _337
REMARK  134  A    between atoms: _337  and  _338
REMARK  135  A    between atoms: _337  and  _340
REMARK  136  A    between atoms: _340  and  _341
REMARK  137  A    between atoms: _344  and  _346
REMARK  138  A    between atoms: _346  and  _347
REMARK  139  A    between atoms: _350  and  _352
REMARK  140  A    between atoms: _352  and  _353
REMARK  141  A    between atoms: _352  and  _355
REMARK  142  A    between atoms: _358  and  _360
REMARK  143  A    between atoms: _360  and  _361
REMARK  144  A    between atoms: _360  and  _363
REMARK  145  A    between atoms: _363  and  _364
REMARK  146  A    between atoms: _369  and  _371
REMARK  147  A    between atoms: _371  and  _372
REMARK  148  A    between atoms: _371  and  _374
REMARK  149  A    between atoms: _374  and  _375
REMARK  150  A    between atoms: _375  and  _376
REMARK  151  A    between atoms: _378  and  _380
REMARK  152  A    between atoms: _380  and  _381
REMARK  153  A    between atoms: _380  and  _383
REMARK  154  A    between atoms: _386  and  _388
REMARK  155  A    between atoms: _388  and  _389
REMARK  156  A    between atoms: _388  and  _391
REMARK  157  A    between atoms: _391  and  _392
REMARK  158  A    between atoms: _395  and  _397
REMARK  159  A    between atoms: _397  and  _398
REMARK  160  A    between atoms: _397  and  _400
REMARK  161  A    between atoms: _400  and  _401
REMARK  162  A    between atoms: _404  and  _406
REMARK  163  A    between atoms: _406  and  _407
REMARK  164  A    between atoms: _406  and  _409
REMARK  165  A    between atoms: _412  and  _414
REMARK  166  A    between atoms: _414  and  _415
REMARK  167  A    between atoms: _418  and  _420
REMARK  168  A    between atoms: _420  and  _421
REMARK  169  A    between atoms: _424  and  _426
REMARK  170  A    between atoms: _426  and  _427
REMARK  171  A    between atoms: _426  and  _429
REMARK  172  A    between atoms: _429  and  _430
REMARK  173  A    between atoms: _433  and  _435
REMARK  174  A    between atoms: _435  and  _436
REMARK  175  A    between atoms: _435  and  _438
REMARK  176  A    between atoms: _438  and  _439
REMARK  177  A    between atoms: _445  and  _447
REMARK  178  A    between atoms: _447  and  _448
REMARK  179  A    between atoms: _447  and  _450
REMARK  180  A    between atoms: _450  and  _451
REMARK  181  A    between atoms: _455  and  _456
REMARK  182  A    between atoms: _461  and  _463
REMARK  183  A    between atoms: _463  and  _464
REMARK  184  A    between atoms: _463  and  _466
REMARK  185  A    between atoms: _466  and  _467
REMARK  186  A    between atoms: _472  and  _474
REMARK  187  A    between atoms: _474  and  _475
REMARK  188  A    between atoms: _474  and  _477
REMARK  189  A    between atoms: _477  and  _478
REMARK  190  A    between atoms: _483  and  _485
REMARK  191  A    between atoms: _485  and  _486
REMARK  192  A    between atoms: _485  and  _488
REMARK  193  A    between atoms: _491  and  _493
REMARK  194  A    between atoms: _493  and  _494
REMARK  195  A    between atoms: _493  and  _496
REMARK  196  A    between atoms: _496  and  _497
REMARK  197  A    between atoms: _497  and  _498
REMARK  198  A    between atoms: _498  and  _499
REMARK  199  A    between atoms: _499  and  _500
REMARK  200  A    between atoms: _504  and  _506
REMARK  201  A    between atoms: _506  and  _507
REMARK  202  A    between atoms: _506  and  _509
REMARK  203  A    between atoms: _509  and  _510
REMARK  204  A    between atoms: _513  and  _515
REMARK  205  A    between atoms: _515  and  _516
REMARK  206  A    between atoms: _519  and  _521
REMARK  207  A    between atoms: _521  and  _522
REMARK  208  A    between atoms: _521  and  _524
REMARK  209  A    between atoms: _527  and  _529
REMARK  210  A    between atoms: _529  and  _530
REMARK  211  A    between atoms: _529  and  _532
REMARK  212  A    between atoms: _532  and  _533
REMARK  213  A    between atoms: _536  and  _538
REMARK  214  A    between atoms: _538  and  _539
REMARK  215  A    between atoms: _538  and  _541
REMARK  216  A    between atoms: _541  and  _542
REMARK  217  A    between atoms: _548  and  _550
REMARK  218  A    between atoms: _550  and  _551
REMARK  219  A    between atoms: _550  and  _553
REMARK  220  A    between atoms: _553  and  _554
REMARK  221  A    between atoms: _557  and  _559
REMARK  222  A    between atoms: _559  and  _560
REMARK  223  A    between atoms: _559  and  _562
REMARK  224  A    between atoms: _562  and  _563
REMARK                            x       y       z     vdW  Elec       q    Type
REMARK                         _______ _______ _______ _____ _____    ______ ____
ROOT
ATOM      1  O   HOH     1      19.774  61.539  54.493  0.00  0.00    +0.000 OA
ENDROOT
TORSDOF 0
REMARK  Name = ../refined-set-2016/4o2b/4o2b_pocket.pdb
REMARK  224 active torsions:
REMARK  status: ('A' for Active; 'I' for Inactive)
REMARK    1  A    between atoms: _1  and  _3
REMARK    2  A    between atoms: _3  and  _4
REMARK    3  A    between atoms: _3  and  _6
REMARK    4  A    between atoms: _6  and  _7
REMARK    5  A    between atoms: _7  and  _8
REMARK    6  A    between atoms: _13  and  _15
REMARK    7  A    between atoms: _15  and  _16
REMARK    8  A    between atoms: _19  and  _21
REMARK    9  A    between atoms: _21  and  _22
REMARK   10  A    between atoms: _21  and  _24
REMARK   11  A    between atoms: _24  and  _25
REMARK   12  A    between atoms: _31  and  _32
REMARK   13  A    between atoms: _37  and  _39
REMARK   14  A    between atoms: _39  and  _40
REMARK   15  A    between atoms: _39  and  _42
REMARK   16  A    between atoms: _45  and  _47
REMARK   17  A    between atoms: _47  and  _48
REMARK   18  A    between atoms: _47  and  _50
REMARK   19  A    between atoms: _50  and  _51
REMARK   20  A    between atoms: _53  and  _55
REMARK   21  A    between atoms: _55  and  _56
REMARK   22  A    between atoms: _55  and  _58
REMARK   23  A    between atoms: _58  and  _59
REMARK   24  A    between atoms: _62  and  _64
REMARK   25  A    between atoms: _64  and  _65
REMARK   26  A    between atoms: _68  and  _70
REMARK   27  A    between atoms: _70  and  _71
REMARK   28  A    between atoms: _70  and  _73
REMARK   29  A    between atoms: _76  and  _78
REMARK   30  A    between atoms: _78  and  _79
REMARK   31  A    between atoms: _78  and  _81
REMARK   32  A    between atoms: _84  and  _86
REMARK   33  A    between atoms: _86  and  _87
REMARK   34  A    between atoms: _86  and  _89
REMARK   35  A    between atoms: _89  and  _90
REMARK   36  A    between atoms: _90  and  _91
REMARK   37  A    between atoms: _94  and  _96
REMARK   38  A    between atoms: _96  and  _97
REMARK   39  A    between atoms: _96  and  _99
REMARK   40  A    between atoms: _99  and  _100
REMARK   41  A    between atoms: _105  and  _106
REMARK   42  A    between atoms: _108  and  _110
REMARK   43  A    between atoms: _110  and  _111
REMARK   44  A    between atoms: _110  and  _113
REMARK   45  A    between atoms: _113  and  _114
REMARK   46  A    between atoms: _120  and  _122
REMARK   47  A    between atoms: _122  and  _123
REMARK   48  A    between atoms: _122  and  _125
REMARK   49  A    between atoms: _125  and  _126
REMARK   50  A    between atoms: _126  and  _127
REMARK   51  A    between atoms: _127  and  _128
REMARK   52  A    between atoms: _137  and  _139
REMARK   53  A    between atoms: _139  and  _140
REMARK   54  A    between atoms: _139  and  _142
REMARK   55  A    between atoms: _142  and  _143
REMARK   56  A    between atoms: _143  and  _144
REMARK   57  A    between atoms: _149  and  _151
REMARK   58  A    between atoms: _151  and  _152
REMARK   59  A    between atoms: _151  and  _154
REMARK   60  A    between atoms: _154  and  _155
REMARK   61  A    between atoms: _155  and  _156
REMARK   62  A    between atoms: _159  and  _161
REMARK   63  A    between atoms: _161  and  _162
REMARK   64  A    between atoms: _161  and  _164
REMARK   65  A    between atoms: _164  and  _165
REMARK   66  A    between atoms: _170  and  _171
REMARK   67  A    between atoms: _173  and  _175
REMARK   68  A    between atoms: _175  and  _176
REMARK   69  A    between atoms: _178  and  _180
REMARK   70  A    between atoms: _180  and  _181
REMARK   71  A    between atoms: _180  and  _183
REMARK   72  A    between atoms: _186  and  _188
REMARK   73  A    between atoms: _188  and  _189
REMARK   74  A    between atoms: _188  and  _191
REMARK   75  A    between atoms: _191  and  _192
REMARK   76  A    between atoms: _195  and  _197
REMARK   77  A    between atoms: _197  and  _198
REMARK   78  A    between atoms: _197  and  _200
REMARK   79  A    between atoms: _200  and  _201
REMARK   80  A    between atoms: _204  and  _206
REMARK   81  A    between atoms: _206  and  _207
REMARK   82  A    between atoms: _206  and  _209
REMARK   83  A    between atoms: _211  and  _213
REMARK   84  A    between atoms: _213  and  _214
REMARK   85  A    between atoms: _213  and  _216
REMARK   86  A    between atoms: _216  and  _217
REMARK   87  A    between atoms: _220  and  _222
REMARK   88  A    between atoms: _222  and  _223
REMARK   89  A    between atoms: _222  and  _225
REMARK   90  A    between atoms: _225  and  _226
REMARK   91  A    between atoms: _226  and  _227
REMARK   92  A    between atoms: _227  and  _228
REMARK   93  A    between atoms: _237  and  _239
REMARK   94  A    between atoms: _239  and  _240
REMARK   95  A    between atoms: _239  and  _242
REMARK   96  A    between atoms: _242  and  _243
REMARK   97  A    between atoms: _249  and  _251
REMARK   98  A    between atoms: _251  and  _252
REMARK   99  A    between atoms: _251  and  _254
REMARK  100  A    between atoms: _254  and  _255
REMARK  101  A    between atoms: _255  and  _256
REMARK  102  A    between atoms: _261  and  _263
REMARK  103  A    between atoms: _263  and  _264
REMARK  104  A    between atoms: _263  and  _266
REMARK  105  A    between atoms: _266  and  _267
REMARK  106  A    between atoms: _270  and  _272
REMARK  107  A    between atoms: _272  and  _273
REMARK  108  A    between atoms: _272  and  _275
REMARK  109  A    between atoms: _275  and  _276
REMARK  110  A    between atoms: _281  and  _283
REMARK  111  A    between atoms: _283  and  _284
REMARK  112  A    between atoms: _287  and  _289
REMARK  113  A    between atoms: _289  and  _290
REMARK  114  A    between atoms: _289  and  _292
REMARK  115  A    between atoms: _292  and  _293
REMARK  116  A    between atoms: _296  and  _298
REMARK  117  A    between atoms: _298  and  _299
REMARK  118  A    between atoms: _298  and  _301
REMARK  119  A    between atoms: _301  and  _302
REMARK  120  A    between atoms: _305  and  _307
REMARK  121  A    between atoms: _307  and  _308
REMARK  122  A    between atoms: _307  and  _310
REMARK  123  A    between atoms: _310  and  _311
REMARK  124  A    between atoms: _311  and  _312
REMARK  125  A    between atoms: _312  and  _313
REMARK  126  A    between atoms: _322  and  _324
REMARK  127  A    between atoms: _324  and  _325
REMARK  128  A    between atoms: _324  and  _327
REMARK  129  A    between atoms: _327  and  _328
REMARK  130  A    between atoms: _328  and  _329
REMARK  131  A    between atoms: _329  and  _330
REMARK  132  A    between atoms: _330  and  _331
REMARK  133  A    between atoms: _335  and  _337
REMARK  134  A    between atoms: _337  and  _338
REMARK  135  A    between atoms: _337  and  _340
REMARK  136  A    between atoms: _340  and  _341
REMARK  137  A    between atoms: _344  and  _346
REMARK  138  A    between atoms: _346  and  _347
REMARK  139  A    between atoms: _350  and  _352
REMARK  140  A    between atoms: _352  and  _353
REMARK  141  A    between atoms: _352  and  _355
REMARK  142  A    between atoms: _358  and  _360
REMARK  143  A    between atoms: _360  and  _361
REMARK  144  A    between atoms: _360  and  _363
REMARK  145  A    between atoms: _363  and  _364
REMARK  146  A    between atoms: _369  and  _371
REMARK  147  A    between atoms: _371  and  _372
REMARK  148  A    between atoms: _371  and  _374
REMARK  149  A    between atoms: _374  and  _375
REMARK  150  A    between atoms: _375  and  _376
REMARK  151  A    between atoms: _378  and  _380
REMARK  152  A    between atoms: _380  and  _381
REMARK  153  A    between atoms: _380  and  _383
REMARK  154  A    between atoms: _386  and  _388
REMARK  155  A    between atoms: _388  and  _389
REMARK  156  A    between atoms: _388  and  _391
REMARK  157  A    between atoms: _391  and  _392
REMARK  158  A    between atoms: _395  and  _397
REMARK  159  A    between atoms: _397  and  _398
REMARK  160  A    between atoms: _397  and  _400
REMARK  161  A    between atoms: _400  and  _401
REMARK  162  A    between atoms: _404  and  _406
REMARK  163  A    between atoms: _406  and  _407
REMARK  164  A    between atoms: _406  and  _409
REMARK  165  A    between atoms: _412  and  _414
REMARK  166  A    between atoms: _414  and  _415
REMARK  167  A    between atoms: _418  and  _420
REMARK  168  A    between atoms: _420  and  _421
REMARK  169  A    between atoms: _424  and  _426
REMARK  170  A    between atoms: _426  and  _427
REMARK  171  A    between atoms: _426  and  _429
REMARK  172  A    between atoms: _429  and  _430
REMARK  173  A    between atoms: _433  and  _435
REMARK  174  A    between atoms: _435  and  _436
REMARK  175  A    between atoms: _435  and  _438
REMARK  176  A    between atoms: _438  and  _439
REMARK  177  A    between atoms: _445  and  _447
REMARK  178  A    between atoms: _447  and  _448
REMARK  179  A    between atoms: _447  and  _450
REMARK  180  A    between atoms: _450  and  _451
REMARK  181  A    between atoms: _455  and  _456
REMARK  182  A    between atoms: _461  and  _463
REMARK  183  A    between atoms: _463  and  _464
REMARK  184  A    between atoms: _463  and  _466
REMARK  185  A    between atoms: _466  and  _467
REMARK  186  A    between atoms: _472  and  _474
REMARK  187  A    between atoms: _474  and  _475
REMARK  188  A    between atoms: _474  and  _477
REMARK  189  A    between atoms: _477  and  _478
REMARK  190  A    between atoms: _483  and  _485
REMARK  191  A    between atoms: _485  and  _486
REMARK  192  A    between atoms: _485  and  _488
REMARK  193  A    between atoms: _491  and  _493
REMARK  194  A    between atoms: _493  and  _494
REMARK  195  A    between atoms: _493  and  _496
REMARK  196  A    between atoms: _496  and  _497
REMARK  197  A    between atoms: _497  and  _498
REMARK  198  A    between atoms: _498  and  _499
REMARK  199  A    between atoms: _499  and  _500
REMARK  200  A    between atoms: _504  and  _506
REMARK  201  A    between atoms: _506  and  _507
REMARK  202  A    between atoms: _506  and  _509
REMARK  203  A    between atoms: _509  and  _510
REMARK  204  A    between atoms: _513  and  _515
REMARK  205  A    between atoms: _515  and  _516
REMARK  206  A    between atoms: _519  and  _521
REMARK  207  A    between atoms: _521  and  _522
REMARK  208  A    between atoms: _521  and  _524
REMARK  209  A    between atoms: _527  and  _529
REMARK  210  A    between atoms: _529  and  _530
REMARK  211  A    between atoms: _529  and  _532
REMARK  212  A    between atoms: _532  and  _533
REMARK  213  A    between atoms: _536  and  _538
REMARK  214  A    between atoms: _538  and  _539
REMARK  215  A    between atoms: _538  and  _541
REMARK  216  A    between atoms: _541  and  _542
REMARK  217  A    between atoms: _548  and  _550
REMARK  218  A    between atoms: _550  and  _551
REMARK  219  A    between atoms: _550  and  _553
REMARK  220  A    between atoms: _553  and  _554
REMARK  221  A    between atoms: _557  and  _559
REMARK  222  A    between atoms: _559  and  _560
REMARK  223  A    between atoms: _559  and  _562
REMARK  224  A    between atoms: _562  and  _563
REMARK                            x       y       z     vdW  Elec       q    Type
REMARK                         _______ _______ _______ _____ _____    ______ ____
ROOT
ATOM      1  O   HOH     1      13.196  69.317  46.581  0.00  0.00    +0.000 OA
ENDROOT
TORSDOF 0
REMARK  Name = ../refined-set-2016/4o2b/4o2b_pocket.pdb
REMARK  224 active torsions:
REMARK  status: ('A' for Active; 'I' for Inactive)
REMARK    1  A    between atoms: _1  and  _3
REMARK    2  A    between atoms: _3  and  _4
REMARK    3  A    between atoms: _3  and  _6
REMARK    4  A    between atoms: _6  and  _7
REMARK    5  A    between atoms: _7  and  _8
REMARK    6  A    between atoms: _13  and  _15
REMARK    7  A    between atoms: _15  and  _16
REMARK    8  A    between atoms: _19  and  _21
REMARK    9  A    between atoms: _21  and  _22
REMARK   10  A    between atoms: _21  and  _24
REMARK   11  A    between atoms: _24  and  _25
REMARK   12  A    between atoms: _31  and  _32
REMARK   13  A    between atoms: _37  and  _39
REMARK   14  A    between atoms: _39  and  _40
REMARK   15  A    between atoms: _39  and  _42
REMARK   16  A    between atoms: _45  and  _47
REMARK   17  A    between atoms: _47  and  _48
REMARK   18  A    between atoms: _47  and  _50
REMARK   19  A    between atoms: _50  and  _51
REMARK   20  A    between atoms: _53  and  _55
REMARK   21  A    between atoms: _55  and  _56
REMARK   22  A    between atoms: _55  and  _58
REMARK   23  A    between atoms: _58  and  _59
REMARK   24  A    between atoms: _62  and  _64
REMARK   25  A    between atoms: _64  and  _65
REMARK   26  A    between atoms: _68  and  _70
REMARK   27  A    between atoms: _70  and  _71
REMARK   28  A    between atoms: _70  and  _73
REMARK   29  A    between atoms: _76  and  _78
REMARK   30  A    between atoms: _78  and  _79
REMARK   31  A    between atoms: _78  and  _81
REMARK   32  A    between atoms: _84  and  _86
REMARK   33  A    between atoms: _86  and  _87
REMARK   34  A    between atoms: _86  and  _89
REMARK   35  A    between atoms: _89  and  _90
REMARK   36  A    between atoms: _90  and  _91
REMARK   37  A    between atoms: _94  and  _96
REMARK   38  A    between atoms: _96  and  _97
REMARK   39  A    between atoms: _96  and  _99
REMARK   40  A    between atoms: _99  and  _100
REMARK   41  A    between atoms: _105  and  _106
REMARK   42  A    between atoms: _108  and  _110
REMARK   43  A    between atoms: _110  and  _111
REMARK   44  A    between atoms: _110  and  _113
REMARK   45  A    between atoms: _113  and  _114
REMARK   46  A    between atoms: _120  and  _122
REMARK   47  A    between atoms: _122  and  _123
REMARK   48  A    between atoms: _122  and  _125
REMARK   49  A    between atoms: _125  and  _126
REMARK   50  A    between atoms: _126  and  _127
REMARK   51  A    between atoms: _127  and  _128
REMARK   52  A    between atoms: _137  and  _139
REMARK   53  A    between atoms: _139  and  _140
REMARK   54  A    between atoms: _139  and  _142
REMARK   55  A    between atoms: _142  and  _143
REMARK   56  A    between atoms: _143  and  _144
REMARK   57  A    between atoms: _149  and  _151
REMARK   58  A    between atoms: _151  and  _152
REMARK   59  A    between atoms: _151  and  _154
REMARK   60  A    between atoms: _154  and  _155
REMARK   61  A    between atoms: _155  and  _156
REMARK   62  A    between atoms: _159  and  _161
REMARK   63  A    between atoms: _161  and  _162
REMARK   64  A    between atoms: _161  and  _164
REMARK   65  A    between atoms: _164  and  _165
REMARK   66  A    between atoms: _170  and  _171
REMARK   67  A    between atoms: _173  and  _175
REMARK   68  A    between atoms: _175  and  _176
REMARK   69  A    between atoms: _178  and  _180
REMARK   70  A    between atoms: _180  and  _181
REMARK   71  A    between atoms: _180  and  _183
REMARK   72  A    between atoms: _186  and  _188
REMARK   73  A    between atoms: _188  and  _189
REMARK   74  A    between atoms: _188  and  _191
REMARK   75  A    between atoms: _191  and  _192
REMARK   76  A    between atoms: _195  and  _197
REMARK   77  A    between atoms: _197  and  _198
REMARK   78  A    between atoms: _197  and  _200
REMARK   79  A    between atoms: _200  and  _201
REMARK   80  A    between atoms: _204  and  _206
REMARK   81  A    between atoms: _206  and  _207
REMARK   82  A    between atoms: _206  and  _209
REMARK   83  A    between atoms: _211  and  _213
REMARK   84  A    between atoms: _213  and  _214
REMARK   85  A    between atoms: _213  and  _216
REMARK   86  A    between atoms: _216  and  _217
REMARK   87  A    between atoms: _220  and  _222
REMARK   88  A    between atoms: _222  and  _223
REMARK   89  A    between atoms: _222  and  _225
REMARK   90  A    between atoms: _225  and  _226
REMARK   91  A    between atoms: _226  and  _227
REMARK   92  A    between atoms: _227  and  _228
REMARK   93  A    between atoms: _237  and  _239
REMARK   94  A    between atoms: _239  and  _240
REMARK   95  A    between atoms: _239  and  _242
REMARK   96  A    between atoms: _242  and  _243
REMARK   97  A    between atoms: _249  and  _251
REMARK   98  A    between atoms: _251  and  _252
REMARK   99  A    between atoms: _251  and  _254
REMARK  100  A    between atoms: _254  and  _255
REMARK  101  A    between atoms: _255  and  _256
REMARK  102  A    between atoms: _261  and  _263
REMARK  103  A    between atoms: _263  and  _264
REMARK  104  A    between atoms: _263  and  _266
REMARK  105  A    between atoms: _266  and  _267
REMARK  106  A    between atoms: _270  and  _272
REMARK  107  A    between atoms: _272  and  _273
REMARK  108  A    between atoms: _272  and  _275
REMARK  109  A    between atoms: _275  and  _276
REMARK  110  A    between atoms: _281  and  _283
REMARK  111  A    between atoms: _283  and  _284
REMARK  112  A    between atoms: _287  and  _289
REMARK  113  A    between atoms: _289  and  _290
REMARK  114  A    between atoms: _289  and  _292
REMARK  115  A    between atoms: _292  and  _293
REMARK  116  A    between atoms: _296  and  _298
REMARK  117  A    between atoms: _298  and  _299
REMARK  118  A    between atoms: _298  and  _301
REMARK  119  A    between atoms: _301  and  _302
REMARK  120  A    between atoms: _305  and  _307
REMARK  121  A    between atoms: _307  and  _308
REMARK  122  A    between atoms: _307  and  _310
REMARK  123  A    between atoms: _310  and  _311
REMARK  124  A    between atoms: _311  and  _312
REMARK  125  A    between atoms: _312  and  _313
REMARK  126  A    between atoms: _322  and  _324
REMARK  127  A    between atoms: _324  and  _325
REMARK  128  A    between atoms: _324  and  _327
REMARK  129  A    between atoms: _327  and  _328
REMARK  130  A    between atoms: _328  and  _329
REMARK  131  A    between atoms: _329  and  _330
REMARK  132  A    between atoms: _330  and  _331
REMARK  133  A    between atoms: _335  and  _337
REMARK  134  A    between atoms: _337  and  _338
REMARK  135  A    between atoms: _337  and  _340
REMARK  136  A    between atoms: _340  and  _341
REMARK  137  A    between atoms: _344  and  _346
REMARK  138  A    between atoms: _346  and  _347
REMARK  139  A    between atoms: _350  and  _352
REMARK  140  A    between atoms: _352  and  _353
REMARK  141  A    between atoms: _352  and  _355
REMARK  142  A    between atoms: _358  and  _360
REMARK  143  A    between atoms: _360  and  _361
REMARK  144  A    between atoms: _360  and  _363
REMARK  145  A    between atoms: _363  and  _364
REMARK  146  A    between atoms: _369  and  _371
REMARK  147  A    between atoms: _371  and  _372
REMARK  148  A    between atoms: _371  and  _374
REMARK  149  A    between atoms: _374  and  _375
REMARK  150  A    between atoms: _375  and  _376
REMARK  151  A    between atoms: _378  and  _380
REMARK  152  A    between atoms: _380  and  _381
REMARK  153  A    between atoms: _380  and  _383
REMARK  154  A    between atoms: _386  and  _388
REMARK  155  A    between atoms: _388  and  _389
REMARK  156  A    between atoms: _388  and  _391
REMARK  157  A    between atoms: _391  and  _392
REMARK  158  A    between atoms: _395  and  _397
REMARK  159  A    between atoms: _397  and  _398
REMARK  160  A    between atoms: _397  and  _400
REMARK  161  A    between atoms: _400  and  _401
REMARK  162  A    between atoms: _404  and  _406
REMARK  163  A    between atoms: _406  and  _407
REMARK  164  A    between atoms: _406  and  _409
REMARK  165  A    between atoms: _412  and  _414
REMARK  166  A    between atoms: _414  and  _415
REMARK  167  A    between atoms: _418  and  _420
REMARK  168  A    between atoms: _420  and  _421
REMARK  169  A    between atoms: _424  and  _426
REMARK  170  A    between atoms: _426  and  _427
REMARK  171  A    between atoms: _426  and  _429
REMARK  172  A    between atoms: _429  and  _430
REMARK  173  A    between atoms: _433  and  _435
REMARK  174  A    between atoms: _435  and  _436
REMARK  175  A    between atoms: _435  and  _438
REMARK  176  A    between atoms: _438  and  _439
REMARK  177  A    between atoms: _445  and  _447
REMARK  178  A    between atoms: _447  and  _448
REMARK  179  A    between atoms: _447  and  _450
REMARK  180  A    between atoms: _450  and  _451
REMARK  181  A    between atoms: _455  and  _456
REMARK  182  A    between atoms: _461  and  _463
REMARK  183  A    between atoms: _463  and  _464
REMARK  184  A    between atoms: _463  and  _466
REMARK  185  A    between atoms: _466  and  _467
REMARK  186  A    between atoms: _472  and  _474
REMARK  187  A    between atoms: _474  and  _475
REMARK  188  A    between atoms: _474  and  _477
REMARK  189  A    between atoms: _477  and  _478
REMARK  190  A    between atoms: _483  and  _485
REMARK  191  A    between atoms: _485  and  _486
REMARK  192  A    between atoms: _485  and  _488
REMARK  193  A    between atoms: _491  and  _493
REMARK  194  A    between atoms: _493  and  _494
REMARK  195  A    between atoms: _493  and  _496
REMARK  196  A    between atoms: _496  and  _497
REMARK  197  A    between atoms: _497  and  _498
REMARK  198  A    between atoms: _498  and  _499
REMARK  199  A    between atoms: _499  and  _500
REMARK  200  A    between atoms: _504  and  _506
REMARK  201  A    between atoms: _506  and  _507
REMARK  202  A    between atoms: _506  and  _509
REMARK  203  A    between atoms: _509  and  _510
REMARK  204  A    between atoms: _513  and  _515
REMARK  205  A    between atoms: _515  and  _516
REMARK  206  A    between atoms: _519  and  _521
REMARK  207  A    between atoms: _521  and  _522
REMARK  208  A    between atoms: _521  and  _524
REMARK  209  A    between atoms: _527  and  _529
REMARK  210  A    between atoms: _529  and  _530
REMARK  211  A    between atoms: _529  and  _532
REMARK  212  A    between atoms: _532  and  _533
REMARK  213  A    between atoms: _536  and  _538
REMARK  214  A    between atoms: _538  and  _539
REMARK  215  A    between atoms: _538  and  _541
REMARK  216  A    between atoms: _541  and  _542
REMARK  217  A    between atoms: _548  and  _550
REMARK  218  A    between atoms: _550  and  _551
REMARK  219  A    between atoms: _550  and  _553
REMARK  220  A    between atoms: _553  and  _554
REMARK  221  A    between atoms: _557  and  _559
REMARK  222  A    between atoms: _559  and  _560
REMARK  223  A    between atoms: _559  and  _562
REMARK  224  A    between atoms: _562  and  _563
REMARK                            x       y       z     vdW  Elec       q    Type
REMARK                         _______ _______ _______ _____ _____    ______ ____
ROOT
ATOM      1  O   HOH     1      11.751  62.010  52.156  0.00  0.00    +0.000 OA
ENDROOT
TORSDOF 0
REMARK  Name = ../refined-set-2016/4o2b/4o2b_pocket.pdb
REMARK  224 active torsions:
REMARK  status: ('A' for Active; 'I' for Inactive)
REMARK    1  A    between atoms: _1  and  _3
REMARK    2  A    between atoms: _3  and  _4
REMARK    3  A    between atoms: _3  and  _6
REMARK    4  A    between atoms: _6  and  _7
REMARK    5  A    between atoms: _7  and  _8
REMARK    6  A    between atoms: _13  and  _15
REMARK    7  A    between atoms: _15  and  _16
REMARK    8  A    between atoms: _19  and  _21
REMARK    9  A    between atoms: _21  and  _22
REMARK   10  A    between atoms: _21  and  _24
REMARK   11  A    between atoms: _24  and  _25
REMARK   12  A    between atoms: _31  and  _32
REMARK   13  A    between atoms: _37  and  _39
REMARK   14  A    between atoms: _39  and  _40
REMARK   15  A    between atoms: _39  and  _42
REMARK   16  A    between atoms: _45  and  _47
REMARK   17  A    between atoms: _47  and  _48
REMARK   18  A    between atoms: _47  and  _50
REMARK   19  A    between atoms: _50  and  _51
REMARK   20  A    between atoms: _53  and  _55
REMARK   21  A    between atoms: _55  and  _56
REMARK   22  A    between atoms: _55  and  _58
REMARK   23  A    between atoms: _58  and  _59
REMARK   24  A    between atoms: _62  and  _64
REMARK   25  A    between atoms: _64  and  _65
REMARK   26  A    between atoms: _68  and  _70
REMARK   27  A    between atoms: _70  and  _71
REMARK   28  A    between atoms: _70  and  _73
REMARK   29  A    between atoms: _76  and  _78
REMARK   30  A    between atoms: _78  and  _79
REMARK   31  A    between atoms: _78  and  _81
REMARK   32  A    between atoms: _84  and  _86
REMARK   33  A    between atoms: _86  and  _87
REMARK   34  A    between atoms: _86  and  _89
REMARK   35  A    between atoms: _89  and  _90
REMARK   36  A    between atoms: _90  and  _91
REMARK   37  A    between atoms: _94  and  _96
REMARK   38  A    between atoms: _96  and  _97
REMARK   39  A    between atoms: _96  and  _99
REMARK   40  A    between atoms: _99  and  _100
REMARK   41  A    between atoms: _105  and  _106
REMARK   42  A    between atoms: _108  and  _110
REMARK   43  A    between atoms: _110  and  _111
REMARK   44  A    between atoms: _110  and  _113
REMARK   45  A    between atoms: _113  and  _114
REMARK   46  A    between atoms: _120  and  _122
REMARK   47  A    between atoms: _122  and  _123
REMARK   48  A    between atoms: _122  and  _125
REMARK   49  A    between atoms: _125  and  _126
REMARK   50  A    between atoms: _126  and  _127
REMARK   51  A    between atoms: _127  and  _128
REMARK   52  A    between atoms: _137  and  _139
REMARK   53  A    between atoms: _139  and  _140
REMARK   54  A    between atoms: _139  and  _142
REMARK   55  A    between atoms: _142  and  _143
REMARK   56  A    between atoms: _143  and  _144
REMARK   57  A    between atoms: _149  and  _151
REMARK   58  A    between atoms: _151  and  _152
REMARK   59  A    between atoms: _151  and  _154
REMARK   60  A    between atoms: _154  and  _155
REMARK   61  A    between atoms: _155  and  _156
REMARK   62  A    between atoms: _159  and  _161
REMARK   63  A    between atoms: _161  and  _162
REMARK   64  A    between atoms: _161  and  _164
REMARK   65  A    between atoms: _164  and  _165
REMARK   66  A    between atoms: _170  and  _171
REMARK   67  A    between atoms: _173  and  _175
REMARK   68  A    between atoms: _175  and  _176
REMARK   69  A    between atoms: _178  and  _180
REMARK   70  A    between atoms: _180  and  _181
REMARK   71  A    between atoms: _180  and  _183
REMARK   72  A    between atoms: _186  and  _188
REMARK   73  A    between atoms: _188  and  _189
REMARK   74  A    between atoms: _188  and  _191
REMARK   75  A    between atoms: _191  and  _192
REMARK   76  A    between atoms: _195  and  _197
REMARK   77  A    between atoms: _197  and  _198
REMARK   78  A    between atoms: _197  and  _200
REMARK   79  A    between atoms: _200  and  _201
REMARK   80  A    between atoms: _204  and  _206
REMARK   81  A    between atoms: _206  and  _207
REMARK   82  A    between atoms: _206  and  _209
REMARK   83  A    between atoms: _211  and  _213
REMARK   84  A    between atoms: _213  and  _214
REMARK   85  A    between atoms: _213  and  _216
REMARK   86  A    between atoms: _216  and  _217
REMARK   87  A    between atoms: _220  and  _222
REMARK   88  A    between atoms: _222  and  _223
REMARK   89  A    between atoms: _222  and  _225
REMARK   90  A    between atoms: _225  and  _226
REMARK   91  A    between atoms: _226  and  _227
REMARK   92  A    between atoms: _227  and  _228
REMARK   93  A    between atoms: _237  and  _239
REMARK   94  A    between atoms: _239  and  _240
REMARK   95  A    between atoms: _239  and  _242
REMARK   96  A    between atoms: _242  and  _243
REMARK   97  A    between atoms: _249  and  _251
REMARK   98  A    between atoms: _251  and  _252
REMARK   99  A    between atoms: _251  and  _254
REMARK  100  A    between atoms: _254  and  _255
REMARK  101  A    between atoms: _255  and  _256
REMARK  102  A    between atoms: _261  and  _263
REMARK  103  A    between atoms: _263  and  _264
REMARK  104  A    between atoms: _263  and  _266
REMARK  105  A    between atoms: _266  and  _267
REMARK  106  A    between atoms: _270  and  _272
REMARK  107  A    between atoms: _272  and  _273
REMARK  108  A    between atoms: _272  and  _275
REMARK  109  A    between atoms: _275  and  _276
REMARK  110  A    between atoms: _281  and  _283
REMARK  111  A    between atoms: _283  and  _284
REMARK  112  A    between atoms: _287  and  _289
REMARK  113  A    between atoms: _289  and  _290
REMARK  114  A    between atoms: _289  and  _292
REMARK  115  A    between atoms: _292  and  _293
REMARK  116  A    between atoms: _296  and  _298
REMARK  117  A    between atoms: _298  and  _299
REMARK  118  A    between atoms: _298  and  _301
REMARK  119  A    between atoms: _301  and  _302
REMARK  120  A    between atoms: _305  and  _307
REMARK  121  A    between atoms: _307  and  _308
REMARK  122  A    between atoms: _307  and  _310
REMARK  123  A    between atoms: _310  and  _311
REMARK  124  A    between atoms: _311  and  _312
REMARK  125  A    between atoms: _312  and  _313
REMARK  126  A    between atoms: _322  and  _324
REMARK  127  A    between atoms: _324  and  _325
REMARK  128  A    between atoms: _324  and  _327
REMARK  129  A    between atoms: _327  and  _328
REMARK  130  A    between atoms: _328  and  _329
REMARK  131  A    between atoms: _329  and  _330
REMARK  132  A    between atoms: _330  and  _331
REMARK  133  A    between atoms: _335  and  _337
REMARK  134  A    between atoms: _337  and  _338
REMARK  135  A    between atoms: _337  and  _340
REMARK  136  A    between atoms: _340  and  _341
REMARK  137  A    between atoms: _344  and  _346
REMARK  138  A    between atoms: _346  and  _347
REMARK  139  A    between atoms: _350  and  _352
REMARK  140  A    between atoms: _352  and  _353
REMARK  141  A    between atoms: _352  and  _355
REMARK  142  A    between atoms: _358  and  _360
REMARK  143  A    between atoms: _360  and  _361
REMARK  144  A    between atoms: _360  and  _363
REMARK  145  A    between atoms: _363  and  _364
REMARK  146  A    between atoms: _369  and  _371
REMARK  147  A    between atoms: _371  and  _372
REMARK  148  A    between atoms: _371  and  _374
REMARK  149  A    between atoms: _374  and  _375
REMARK  150  A    between atoms: _375  and  _376
REMARK  151  A    between atoms: _378  and  _380
REMARK  152  A    between atoms: _380  and  _381
REMARK  153  A    between atoms: _380  and  _383
REMARK  154  A    between atoms: _386  and  _388
REMARK  155  A    between atoms: _388  and  _389
REMARK  156  A    between atoms: _388  and  _391
REMARK  157  A    between atoms: _391  and  _392
REMARK  158  A    between atoms: _395  and  _397
REMARK  159  A    between atoms: _397  and  _398
REMARK  160  A    between atoms: _397  and  _400
REMARK  161  A    between atoms: _400  and  _401
REMARK  162  A    between atoms: _404  and  _406
REMARK  163  A    between atoms: _406  and  _407
REMARK  164  A    between atoms: _406  and  _409
REMARK  165  A    between atoms: _412  and  _414
REMARK  166  A    between atoms: _414  and  _415
REMARK  167  A    between atoms: _418  and  _420
REMARK  168  A    between atoms: _420  and  _421
REMARK  169  A    between atoms: _424  and  _426
REMARK  170  A    between atoms: _426  and  _427
REMARK  171  A    between atoms: _426  and  _429
REMARK  172  A    between atoms: _429  and  _430
REMARK  173  A    between atoms: _433  and  _435
REMARK  174  A    between atoms: _435  and  _436
REMARK  175  A    between atoms: _435  and  _438
REMARK  176  A    between atoms: _438  and  _439
REMARK  177  A    between atoms: _445  and  _447
REMARK  178  A    between atoms: _447  and  _448
REMARK  179  A    between atoms: _447  and  _450
REMARK  180  A    between atoms: _450  and  _451
REMARK  181  A    between atoms: _455  and  _456
REMARK  182  A    between atoms: _461  and  _463
REMARK  183  A    between atoms: _463  and  _464
REMARK  184  A    between atoms: _463  and  _466
REMARK  185  A    between atoms: _466  and  _467
REMARK  186  A    between atoms: _472  and  _474
REMARK  187  A    between atoms: _474  and  _475
REMARK  188  A    between atoms: _474  and  _477
REMARK  189  A    between atoms: _477  and  _478
REMARK  190  A    between atoms: _483  and  _485
REMARK  191  A    between atoms: _485  and  _486
REMARK  192  A    between atoms: _485  and  _488
REMARK  193  A    between atoms: _491  and  _493
REMARK  194  A    between atoms: _493  and  _494
REMARK  195  A    between atoms: _493  and  _496
REMARK  196  A    between atoms: _496  and  _497
REMARK  197  A    between atoms: _497  and  _498
REMARK  198  A    between atoms: _498  and  _499
REMARK  199  A    between atoms: _499  and  _500
REMARK  200  A    between atoms: _504  and  _506
REMARK  201  A    between atoms: _506  and  _507
REMARK  202  A    between atoms: _506  and  _509
REMARK  203  A    between atoms: _509  and  _510
REMARK  204  A    between atoms: _513  and  _515
REMARK  205  A    between atoms: _515  and  _516
REMARK  206  A    between atoms: _519  and  _521
REMARK  207  A    between atoms: _521  and  _522
REMARK  208  A    between atoms: _521  and  _524
REMARK  209  A    between atoms: _527  and  _529
REMARK  210  A    between atoms: _529  and  _530
REMARK  211  A    between atoms: _529  and  _532
REMARK  212  A    between atoms: _532  and  _533
REMARK  213  A    between atoms: _536  and  _538
REMARK  214  A    between atoms: _538  and  _539
REMARK  215  A    between atoms: _538  and  _541
REMARK  216  A    between atoms: _541  and  _542
REMARK  217  A    between atoms: _548  and  _550
REMARK  218  A    between atoms: _550  and  _551
REMARK  219  A    between atoms: _550  and  _553
REMARK  220  A    between atoms: _553  and  _554
REMARK  221  A    between atoms: _557  and  _559
REMARK  222  A    between atoms: _559  and  _560
REMARK  223  A    between atoms: _559  and  _562
REMARK  224  A    between atoms: _562  and  _563
REMARK                            x       y       z     vdW  Elec       q    Type
REMARK                         _______ _______ _______ _____ _____    ______ ____
ROOT
ATOM      1  O   HOH     1      12.829  65.024  52.286  0.00  0.00    +0.000 OA
ENDROOT
TORSDOF 0
REMARK  Name = ../refined-set-2016/4o2b/4o2b_pocket.pdb
REMARK  224 active torsions:
REMARK  status: ('A' for Active; 'I' for Inactive)
REMARK    1  A    between atoms: _1  and  _3
REMARK    2  A    between atoms: _3  and  _4
REMARK    3  A    between atoms: _3  and  _6
REMARK    4  A    between atoms: _6  and  _7
REMARK    5  A    between atoms: _7  and  _8
REMARK    6  A    between atoms: _13  and  _15
REMARK    7  A    between atoms: _15  and  _16
REMARK    8  A    between atoms: _19  and  _21
REMARK    9  A    between atoms: _21  and  _22
REMARK   10  A    between atoms: _21  and  _24
REMARK   11  A    between atoms: _24  and  _25
REMARK   12  A    between atoms: _31  and  _32
REMARK   13  A    between atoms: _37  and  _39
REMARK   14  A    between atoms: _39  and  _40
REMARK   15  A    between atoms: _39  and  _42
REMARK   16  A    between atoms: _45  and  _47
REMARK   17  A    between atoms: _47  and  _48
REMARK   18  A    between atoms: _47  and  _50
REMARK   19  A    between atoms: _50  and  _51
REMARK   20  A    between atoms: _53  and  _55
REMARK   21  A    between atoms: _55  and  _56
REMARK   22  A    between atoms: _55  and  _58
REMARK   23  A    between atoms: _58  and  _59
REMARK   24  A    between atoms: _62  and  _64
REMARK   25  A    between atoms: _64  and  _65
REMARK   26  A    between atoms: _68  and  _70
REMARK   27  A    between atoms: _70  and  _71
REMARK   28  A    between atoms: _70  and  _73
REMARK   29  A    between atoms: _76  and  _78
REMARK   30  A    between atoms: _78  and  _79
REMARK   31  A    between atoms: _78  and  _81
REMARK   32  A    between atoms: _84  and  _86
REMARK   33  A    between atoms: _86  and  _87
REMARK   34  A    between atoms: _86  and  _89
REMARK   35  A    between atoms: _89  and  _90
REMARK   36  A    between atoms: _90  and  _91
REMARK   37  A    between atoms: _94  and  _96
REMARK   38  A    between atoms: _96  and  _97
REMARK   39  A    between atoms: _96  and  _99
REMARK   40  A    between atoms: _99  and  _100
REMARK   41  A    between atoms: _105  and  _106
REMARK   42  A    between atoms: _108  and  _110
REMARK   43  A    between atoms: _110  and  _111
REMARK   44  A    between atoms: _110  and  _113
REMARK   45  A    between atoms: _113  and  _114
REMARK   46  A    between atoms: _120  and  _122
REMARK   47  A    between atoms: _122  and  _123
REMARK   48  A    between atoms: _122  and  _125
REMARK   49  A    between atoms: _125  and  _126
REMARK   50  A    between atoms: _126  and  _127
REMARK   51  A    between atoms: _127  and  _128
REMARK   52  A    between atoms: _137  and  _139
REMARK   53  A    between atoms: _139  and  _140
REMARK   54  A    between atoms: _139  and  _142
REMARK   55  A    between atoms: _142  and  _143
REMARK   56  A    between atoms: _143  and  _144
REMARK   57  A    between atoms: _149  and  _151
REMARK   58  A    between atoms: _151  and  _152
REMARK   59  A    between atoms: _151  and  _154
REMARK   60  A    between atoms: _154  and  _155
REMARK   61  A    between atoms: _155  and  _156
REMARK   62  A    between atoms: _159  and  _161
REMARK   63  A    between atoms: _161  and  _162
REMARK   64  A    between atoms: _161  and  _164
REMARK   65  A    between atoms: _164  and  _165
REMARK   66  A    between atoms: _170  and  _171
REMARK   67  A    between atoms: _173  and  _175
REMARK   68  A    between atoms: _175  and  _176
REMARK   69  A    between atoms: _178  and  _180
REMARK   70  A    between atoms: _180  and  _181
REMARK   71  A    between atoms: _180  and  _183
REMARK   72  A    between atoms: _186  and  _188
REMARK   73  A    between atoms: _188  and  _189
REMARK   74  A    between atoms: _188  and  _191
REMARK   75  A    between atoms: _191  and  _192
REMARK   76  A    between atoms: _195  and  _197
REMARK   77  A    between atoms: _197  and  _198
REMARK   78  A    between atoms: _197  and  _200
REMARK   79  A    between atoms: _200  and  _201
REMARK   80  A    between atoms: _204  and  _206
REMARK   81  A    between atoms: _206  and  _207
REMARK   82  A    between atoms: _206  and  _209
REMARK   83  A    between atoms: _211  and  _213
REMARK   84  A    between atoms: _213  and  _214
REMARK   85  A    between atoms: _213  and  _216
REMARK   86  A    between atoms: _216  and  _217
REMARK   87  A    between atoms: _220  and  _222
REMARK   88  A    between atoms: _222  and  _223
REMARK   89  A    between atoms: _222  and  _225
REMARK   90  A    between atoms: _225  and  _226
REMARK   91  A    between atoms: _226  and  _227
REMARK   92  A    between atoms: _227  and  _228
REMARK   93  A    between atoms: _237  and  _239
REMARK   94  A    between atoms: _239  and  _240
REMARK   95  A    between atoms: _239  and  _242
REMARK   96  A    between atoms: _242  and  _243
REMARK   97  A    between atoms: _249  and  _251
REMARK   98  A    between atoms: _251  and  _252
REMARK   99  A    between atoms: _251  and  _254
REMARK  100  A    between atoms: _254  and  _255
REMARK  101  A    between atoms: _255  and  _256
REMARK  102  A    between atoms: _261  and  _263
REMARK  103  A    between atoms: _263  and  _264
REMARK  104  A    between atoms: _263  and  _266
REMARK  105  A    between atoms: _266  and  _267
REMARK  106  A    between atoms: _270  and  _272
REMARK  107  A    between atoms: _272  and  _273
REMARK  108  A    between atoms: _272  and  _275
REMARK  109  A    between atoms: _275  and  _276
REMARK  110  A    between atoms: _281  and  _283
REMARK  111  A    between atoms: _283  and  _284
REMARK  112  A    between atoms: _287  and  _289
REMARK  113  A    between atoms: _289  and  _290
REMARK  114  A    between atoms: _289  and  _292
REMARK  115  A    between atoms: _292  and  _293
REMARK  116  A    between atoms: _296  and  _298
REMARK  117  A    between atoms: _298  and  _299
REMARK  118  A    between atoms: _298  and  _301
REMARK  119  A    between atoms: _301  and  _302
REMARK  120  A    between atoms: _305  and  _307
REMARK  121  A    between atoms: _307  and  _308
REMARK  122  A    between atoms: _307  and  _310
REMARK  123  A    between atoms: _310  and  _311
REMARK  124  A    between atoms: _311  and  _312
REMARK  125  A    between atoms: _312  and  _313
REMARK  126  A    between atoms: _322  and  _324
REMARK  127  A    between atoms: _324  and  _325
REMARK  128  A    between atoms: _324  and  _327
REMARK  129  A    between atoms: _327  and  _328
REMARK  130  A    between atoms: _328  and  _329
REMARK  131  A    between atoms: _329  and  _330
REMARK  132  A    between atoms: _330  and  _331
REMARK  133  A    between atoms: _335  and  _337
REMARK  134  A    between atoms: _337  and  _338
REMARK  135  A    between atoms: _337  and  _340
REMARK  136  A    between atoms: _340  and  _341
REMARK  137  A    between atoms: _344  and  _346
REMARK  138  A    between atoms: _346  and  _347
REMARK  139  A    between atoms: _350  and  _352
REMARK  140  A    between atoms: _352  and  _353
REMARK  141  A    between atoms: _352  and  _355
REMARK  142  A    between atoms: _358  and  _360
REMARK  143  A    between atoms: _360  and  _361
REMARK  144  A    between atoms: _360  and  _363
REMARK  145  A    between atoms: _363  and  _364
REMARK  146  A    between atoms: _369  and  _371
REMARK  147  A    between atoms: _371  and  _372
REMARK  148  A    between atoms: _371  and  _374
REMARK  149  A    between atoms: _374  and  _375
REMARK  150  A    between atoms: _375  and  _376
REMARK  151  A    between atoms: _378  and  _380
REMARK  152  A    between atoms: _380  and  _381
REMARK  153  A    between atoms: _380  and  _383
REMARK  154  A    between atoms: _386  and  _388
REMARK  155  A    between atoms: _388  and  _389
REMARK  156  A    between atoms: _388  and  _391
REMARK  157  A    between atoms: _391  and  _392
REMARK  158  A    between atoms: _395  and  _397
REMARK  159  A    between atoms: _397  and  _398
REMARK  160  A    between atoms: _397  and  _400
REMARK  161  A    between atoms: _400  and  _401
REMARK  162  A    between atoms: _404  and  _406
REMARK  163  A    between atoms: _406  and  _407
REMARK  164  A    between atoms: _406  and  _409
REMARK  165  A    between atoms: _412  and  _414
REMARK  166  A    between atoms: _414  and  _415
REMARK  167  A    between atoms: _418  and  _420
REMARK  168  A    between atoms: _420  and  _421
REMARK  169  A    between atoms: _424  and  _426
REMARK  170  A    between atoms: _426  and  _427
REMARK  171  A    between atoms: _426  and  _429
REMARK  172  A    between atoms: _429  and  _430
REMARK  173  A    between atoms: _433  and  _435
REMARK  174  A    between atoms: _435  and  _436
REMARK  175  A    between atoms: _435  and  _438
REMARK  176  A    between atoms: _438  and  _439
REMARK  177  A    between atoms: _445  and  _447
REMARK  178  A    between atoms: _447  and  _448
REMARK  179  A    between atoms: _447  and  _450
REMARK  180  A    between atoms: _450  and  _451
REMARK  181  A    between atoms: _455  and  _456
REMARK  182  A    between atoms: _461  and  _463
REMARK  183  A    between atoms: _463  and  _464
REMARK  184  A    between atoms: _463  and  _466
REMARK  185  A    between atoms: _466  and  _467
REMARK  186  A    between atoms: _472  and  _474
REMARK  187  A    between atoms: _474  and  _475
REMARK  188  A    between atoms: _474  and  _477
REMARK  189  A    between atoms: _477  and  _478
REMARK  190  A    between atoms: _483  and  _485
REMARK  191  A    between atoms: _485  and  _486
REMARK  192  A    between atoms: _485  and  _488
REMARK  193  A    between atoms: _491  and  _493
REMARK  194  A    between atoms: _493  and  _494
REMARK  195  A    between atoms: _493  and  _496
REMARK  196  A    between atoms: _496  and  _497
REMARK  197  A    between atoms: _497  and  _498
REMARK  198  A    between atoms: _498  and  _499
REMARK  199  A    between atoms: _499  and  _500
REMARK  200  A    between atoms: _504  and  _506
REMARK  201  A    between atoms: _506  and  _507
REMARK  202  A    between atoms: _506  and  _509
REMARK  203  A    between atoms: _509  and  _510
REMARK  204  A    between atoms: _513  and  _515
REMARK  205  A    between atoms: _515  and  _516
REMARK  206  A    between atoms: _519  and  _521
REMARK  207  A    between atoms: _521  and  _522
REMARK  208  A    between atoms: _521  and  _524
REMARK  209  A    between atoms: _527  and  _529
REMARK  210  A    between atoms: _529  and  _530
REMARK  211  A    between atoms: _529  and  _532
REMARK  212  A    between atoms: _532  and  _533
REMARK  213  A    between atoms: _536  and  _538
REMARK  214  A    between atoms: _538  and  _539
REMARK  215  A    between atoms: _538  and  _541
REMARK  216  A    between atoms: _541  and  _542
REMARK  217  A    between atoms: _548  and  _550
REMARK  218  A    between atoms: _550  and  _551
REMARK  219  A    between atoms: _550  and  _553
REMARK  220  A    between atoms: _553  and  _554
REMARK  221  A    between atoms: _557  and  _559
REMARK  222  A    between atoms: _559  and  _560
REMARK  223  A    between atoms: _559  and  _562
REMARK  224  A    between atoms: _562  and  _563
REMARK                            x       y       z     vdW  Elec       q    Type
REMARK                         _______ _______ _______ _____ _____    ______ ____
ROOT
ATOM      1  O   HOH     1      18.527  63.760  55.459  0.00  0.00    +0.000 OA
ENDROOT
TORSDOF 0
REMARK  Name = ../refined-set-2016/4o2b/4o2b_pocket.pdb
REMARK  224 active torsions:
REMARK  status: ('A' for Active; 'I' for Inactive)
REMARK    1  A    between atoms: _1  and  _3
REMARK    2  A    between atoms: _3  and  _4
REMARK    3  A    between atoms: _3  and  _6
REMARK    4  A    between atoms: _6  and  _7
REMARK    5  A    between atoms: _7  and  _8
REMARK    6  A    between atoms: _13  and  _15
REMARK    7  A    between atoms: _15  and  _16
REMARK    8  A    between atoms: _19  and  _21
REMARK    9  A    between atoms: _21  and  _22
REMARK   10  A    between atoms: _21  and  _24
REMARK   11  A    between atoms: _24  and  _25
REMARK   12  A    between atoms: _31  and  _32
REMARK   13  A    between atoms: _37  and  _39
REMARK   14  A    between atoms: _39  and  _40
REMARK   15  A    between atoms: _39  and  _42
REMARK   16  A    between atoms: _45  and  _47
REMARK   17  A    between atoms: _47  and  _48
REMARK   18  A    between atoms: _47  and  _50
REMARK   19  A    between atoms: _50  and  _51
REMARK   20  A    between atoms: _53  and  _55
REMARK   21  A    between atoms: _55  and  _56
REMARK   22  A    between atoms: _55  and  _58
REMARK   23  A    between atoms: _58  and  _59
REMARK   24  A    between atoms: _62  and  _64
REMARK   25  A    between atoms: _64  and  _65
REMARK   26  A    between atoms: _68  and  _70
REMARK   27  A    between atoms: _70  and  _71
REMARK   28  A    between atoms: _70  and  _73
REMARK   29  A    between atoms: _76  and  _78
REMARK   30  A    between atoms: _78  and  _79
REMARK   31  A    between atoms: _78  and  _81
REMARK   32  A    between atoms: _84  and  _86
REMARK   33  A    between atoms: _86  and  _87
REMARK   34  A    between atoms: _86  and  _89
REMARK   35  A    between atoms: _89  and  _90
REMARK   36  A    between atoms: _90  and  _91
REMARK   37  A    between atoms: _94  and  _96
REMARK   38  A    between atoms: _96  and  _97
REMARK   39  A    between atoms: _96  and  _99
REMARK   40  A    between atoms: _99  and  _100
REMARK   41  A    between atoms: _105  and  _106
REMARK   42  A    between atoms: _108  and  _110
REMARK   43  A    between atoms: _110  and  _111
REMARK   44  A    between atoms: _110  and  _113
REMARK   45  A    between atoms: _113  and  _114
REMARK   46  A    between atoms: _120  and  _122
REMARK   47  A    between atoms: _122  and  _123
REMARK   48  A    between atoms: _122  and  _125
REMARK   49  A    between atoms: _125  and  _126
REMARK   50  A    between atoms: _126  and  _127
REMARK   51  A    between atoms: _127  and  _128
REMARK   52  A    between atoms: _137  and  _139
REMARK   53  A    between atoms: _139  and  _140
REMARK   54  A    between atoms: _139  and  _142
REMARK   55  A    between atoms: _142  and  _143
REMARK   56  A    between atoms: _143  and  _144
REMARK   57  A    between atoms: _149  and  _151
REMARK   58  A    between atoms: _151  and  _152
REMARK   59  A    between atoms: _151  and  _154
REMARK   60  A    between atoms: _154  and  _155
REMARK   61  A    between atoms: _155  and  _156
REMARK   62  A    between atoms: _159  and  _161
REMARK   63  A    between atoms: _161  and  _162
REMARK   64  A    between atoms: _161  and  _164
REMARK   65  A    between atoms: _164  and  _165
REMARK   66  A    between atoms: _170  and  _171
REMARK   67  A    between atoms: _173  and  _175
REMARK   68  A    between atoms: _175  and  _176
REMARK   69  A    between atoms: _178  and  _180
REMARK   70  A    between atoms: _180  and  _181
REMARK   71  A    between atoms: _180  and  _183
REMARK   72  A    between atoms: _186  and  _188
REMARK   73  A    between atoms: _188  and  _189
REMARK   74  A    between atoms: _188  and  _191
REMARK   75  A    between atoms: _191  and  _192
REMARK   76  A    between atoms: _195  and  _197
REMARK   77  A    between atoms: _197  and  _198
REMARK   78  A    between atoms: _197  and  _200
REMARK   79  A    between atoms: _200  and  _201
REMARK   80  A    between atoms: _204  and  _206
REMARK   81  A    between atoms: _206  and  _207
REMARK   82  A    between atoms: _206  and  _209
REMARK   83  A    between atoms: _211  and  _213
REMARK   84  A    between atoms: _213  and  _214
REMARK   85  A    between atoms: _213  and  _216
REMARK   86  A    between atoms: _216  and  _217
REMARK   87  A    between atoms: _220  and  _222
REMARK   88  A    between atoms: _222  and  _223
REMARK   89  A    between atoms: _222  and  _225
REMARK   90  A    between atoms: _225  and  _226
REMARK   91  A    between atoms: _226  and  _227
REMARK   92  A    between atoms: _227  and  _228
REMARK   93  A    between atoms: _237  and  _239
REMARK   94  A    between atoms: _239  and  _240
REMARK   95  A    between atoms: _239  and  _242
REMARK   96  A    between atoms: _242  and  _243
REMARK   97  A    between atoms: _249  and  _251
REMARK   98  A    between atoms: _251  and  _252
REMARK   99  A    between atoms: _251  and  _254
REMARK  100  A    between atoms: _254  and  _255
REMARK  101  A    between atoms: _255  and  _256
REMARK  102  A    between atoms: _261  and  _263
REMARK  103  A    between atoms: _263  and  _264
REMARK  104  A    between atoms: _263  and  _266
REMARK  105  A    between atoms: _266  and  _267
REMARK  106  A    between atoms: _270  and  _272
REMARK  107  A    between atoms: _272  and  _273
REMARK  108  A    between atoms: _272  and  _275
REMARK  109  A    between atoms: _275  and  _276
REMARK  110  A    between atoms: _281  and  _283
REMARK  111  A    between atoms: _283  and  _284
REMARK  112  A    between atoms: _287  and  _289
REMARK  113  A    between atoms: _289  and  _290
REMARK  114  A    between atoms: _289  and  _292
REMARK  115  A    between atoms: _292  and  _293
REMARK  116  A    between atoms: _296  and  _298
REMARK  117  A    between atoms: _298  and  _299
REMARK  118  A    between atoms: _298  and  _301
REMARK  119  A    between atoms: _301  and  _302
REMARK  120  A    between atoms: _305  and  _307
REMARK  121  A    between atoms: _307  and  _308
REMARK  122  A    between atoms: _307  and  _310
REMARK  123  A    between atoms: _310  and  _311
REMARK  124  A    between atoms: _311  and  _312
REMARK  125  A    between atoms: _312  and  _313
REMARK  126  A    between atoms: _322  and  _324
REMARK  127  A    between atoms: _324  and  _325
REMARK  128  A    between atoms: _324  and  _327
REMARK  129  A    between atoms: _327  and  _328
REMARK  130  A    between atoms: _328  and  _329
REMARK  131  A    between atoms: _329  and  _330
REMARK  132  A    between atoms: _330  and  _331
REMARK  133  A    between atoms: _335  and  _337
REMARK  134  A    between atoms: _337  and  _338
REMARK  135  A    between atoms: _337  and  _340
REMARK  136  A    between atoms: _340  and  _341
REMARK  137  A    between atoms: _344  and  _346
REMARK  138  A    between atoms: _346  and  _347
REMARK  139  A    between atoms: _350  and  _352
REMARK  140  A    between atoms: _352  and  _353
REMARK  141  A    between atoms: _352  and  _355
REMARK  142  A    between atoms: _358  and  _360
REMARK  143  A    between atoms: _360  and  _361
REMARK  144  A    between atoms: _360  and  _363
REMARK  145  A    between atoms: _363  and  _364
REMARK  146  A    between atoms: _369  and  _371
REMARK  147  A    between atoms: _371  and  _372
REMARK  148  A    between atoms: _371  and  _374
REMARK  149  A    between atoms: _374  and  _375
REMARK  150  A    between atoms: _375  and  _376
REMARK  151  A    between atoms: _378  and  _380
REMARK  152  A    between atoms: _380  and  _381
REMARK  153  A    between atoms: _380  and  _383
REMARK  154  A    between atoms: _386  and  _388
REMARK  155  A    between atoms: _388  and  _389
REMARK  156  A    between atoms: _388  and  _391
REMARK  157  A    between atoms: _391  and  _392
REMARK  158  A    between atoms: _395  and  _397
REMARK  159  A    between atoms: _397  and  _398
REMARK  160  A    between atoms: _397  and  _400
REMARK  161  A    between atoms: _400  and  _401
REMARK  162  A    between atoms: _404  and  _406
REMARK  163  A    between atoms: _406  and  _407
REMARK  164  A    between atoms: _406  and  _409
REMARK  165  A    between atoms: _412  and  _414
REMARK  166  A    between atoms: _414  and  _415
REMARK  167  A    between atoms: _418  and  _420
REMARK  168  A    between atoms: _420  and  _421
REMARK  169  A    between atoms: _424  and  _426
REMARK  170  A    between atoms: _426  and  _427
REMARK  171  A    between atoms: _426  and  _429
REMARK  172  A    between atoms: _429  and  _430
REMARK  173  A    between atoms: _433  and  _435
REMARK  174  A    between atoms: _435  and  _436
REMARK  175  A    between atoms: _435  and  _438
REMARK  176  A    between atoms: _438  and  _439
REMARK  177  A    between atoms: _445  and  _447
REMARK  178  A    between atoms: _447  and  _448
REMARK  179  A    between atoms: _447  and  _450
REMARK  180  A    between atoms: _450  and  _451
REMARK  181  A    between atoms: _455  and  _456
REMARK  182  A    between atoms: _461  and  _463
REMARK  183  A    between atoms: _463  and  _464
REMARK  184  A    between atoms: _463  and  _466
REMARK  185  A    between atoms: _466  and  _467
REMARK  186  A    between atoms: _472  and  _474
REMARK  187  A    between atoms: _474  and  _475
REMARK  188  A    between atoms: _474  and  _477
REMARK  189  A    between atoms: _477  and  _478
REMARK  190  A    between atoms: _483  and  _485
REMARK  191  A    between atoms: _485  and  _486
REMARK  192  A    between atoms: _485  and  _488
REMARK  193  A    between atoms: _491  and  _493
REMARK  194  A    between atoms: _493  and  _494
REMARK  195  A    between atoms: _493  and  _496
REMARK  196  A    between atoms: _496  and  _497
REMARK  197  A    between atoms: _497  and  _498
REMARK  198  A    between atoms: _498  and  _499
REMARK  199  A    between atoms: _499  and  _500
REMARK  200  A    between atoms: _504  and  _506
REMARK  201  A    between atoms: _506  and  _507
REMARK  202  A    between atoms: _506  and  _509
REMARK  203  A    between atoms: _509  and  _510
REMARK  204  A    between atoms: _513  and  _515
REMARK  205  A    between atoms: _515  and  _516
REMARK  206  A    between atoms: _519  and  _521
REMARK  207  A    between atoms: _521  and  _522
REMARK  208  A    between atoms: _521  and  _524
REMARK  209  A    between atoms: _527  and  _529
REMARK  210  A    between atoms: _529  and  _530
REMARK  211  A    between atoms: _529  and  _532
REMARK  212  A    between atoms: _532  and  _533
REMARK  213  A    between atoms: _536  and  _538
REMARK  214  A    between atoms: _538  and  _539
REMARK  215  A    between atoms: _538  and  _541
REMARK  216  A    between atoms: _541  and  _542
REMARK  217  A    between atoms: _548  and  _550
REMARK  218  A    between atoms: _550  and  _551
REMARK  219  A    between atoms: _550  and  _553
REMARK  220  A    between atoms: _553  and  _554
REMARK  221  A    between atoms: _557  and  _559
REMARK  222  A    between atoms: _559  and  _560
REMARK  223  A    between atoms: _559  and  _562
REMARK  224  A    between atoms: _562  and  _563
REMARK                            x       y       z     vdW  Elec       q    Type
REMARK                         _______ _______ _______ _____ _____    ______ ____
ROOT
ATOM      1  O   HOH     1      13.790  74.087  37.843  0.00  0.00    +0.000 OA
ENDROOT
TORSDOF 0
REMARK  Name = ../refined-set-2016/4o2b/4o2b_pocket.pdb
REMARK  224 active torsions:
REMARK  status: ('A' for Active; 'I' for Inactive)
REMARK    1  A    between atoms: _1  and  _3
REMARK    2  A    between atoms: _3  and  _4
REMARK    3  A    between atoms: _3  and  _6
REMARK    4  A    between atoms: _6  and  _7
REMARK    5  A    between atoms: _7  and  _8
REMARK    6  A    between atoms: _13  and  _15
REMARK    7  A    between atoms: _15  and  _16
REMARK    8  A    between atoms: _19  and  _21
REMARK    9  A    between atoms: _21  and  _22
REMARK   10  A    between atoms: _21  and  _24
REMARK   11  A    between atoms: _24  and  _25
REMARK   12  A    between atoms: _31  and  _32
REMARK   13  A    between atoms: _37  and  _39
REMARK   14  A    between atoms: _39  and  _40
REMARK   15  A    between atoms: _39  and  _42
REMARK   16  A    between atoms: _45  and  _47
REMARK   17  A    between atoms: _47  and  _48
REMARK   18  A    between atoms: _47  and  _50
REMARK   19  A    between atoms: _50  and  _51
REMARK   20  A    between atoms: _53  and  _55
REMARK   21  A    between atoms: _55  and  _56
REMARK   22  A    between atoms: _55  and  _58
REMARK   23  A    between atoms: _58  and  _59
REMARK   24  A    between atoms: _62  and  _64
REMARK   25  A    between atoms: _64  and  _65
REMARK   26  A    between atoms: _68  and  _70
REMARK   27  A    between atoms: _70  and  _71
REMARK   28  A    between atoms: _70  and  _73
REMARK   29  A    between atoms: _76  and  _78
REMARK   30  A    between atoms: _78  and  _79
REMARK   31  A    between atoms: _78  and  _81
REMARK   32  A    between atoms: _84  and  _86
REMARK   33  A    between atoms: _86  and  _87
REMARK   34  A    between atoms: _86  and  _89
REMARK   35  A    between atoms: _89  and  _90
REMARK   36  A    between atoms: _90  and  _91
REMARK   37  A    between atoms: _94  and  _96
REMARK   38  A    between atoms: _96  and  _97
REMARK   39  A    between atoms: _96  and  _99
REMARK   40  A    between atoms: _99  and  _100
REMARK   41  A    between atoms: _105  and  _106
REMARK   42  A    between atoms: _108  and  _110
REMARK   43  A    between atoms: _110  and  _111
REMARK   44  A    between atoms: _110  and  _113
REMARK   45  A    between atoms: _113  and  _114
REMARK   46  A    between atoms: _120  and  _122
REMARK   47  A    between atoms: _122  and  _123
REMARK   48  A    between atoms: _122  and  _125
REMARK   49  A    between atoms: _125  and  _126
REMARK   50  A    between atoms: _126  and  _127
REMARK   51  A    between atoms: _127  and  _128
REMARK   52  A    between atoms: _137  and  _139
REMARK   53  A    between atoms: _139  and  _140
REMARK   54  A    between atoms: _139  and  _142
REMARK   55  A    between atoms: _142  and  _143
REMARK   56  A    between atoms: _143  and  _144
REMARK   57  A    between atoms: _149  and  _151
REMARK   58  A    between atoms: _151  and  _152
REMARK   59  A    between atoms: _151  and  _154
REMARK   60  A    between atoms: _154  and  _155
REMARK   61  A    between atoms: _155  and  _156
REMARK   62  A    between atoms: _159  and  _161
REMARK   63  A    between atoms: _161  and  _162
REMARK   64  A    between atoms: _161  and  _164
REMARK   65  A    between atoms: _164  and  _165
REMARK   66  A    between atoms: _170  and  _171
REMARK   67  A    between atoms: _173  and  _175
REMARK   68  A    between atoms: _175  and  _176
REMARK   69  A    between atoms: _178  and  _180
REMARK   70  A    between atoms: _180  and  _181
REMARK   71  A    between atoms: _180  and  _183
REMARK   72  A    between atoms: _186  and  _188
REMARK   73  A    between atoms: _188  and  _189
REMARK   74  A    between atoms: _188  and  _191
REMARK   75  A    between atoms: _191  and  _192
REMARK   76  A    between atoms: _195  and  _197
REMARK   77  A    between atoms: _197  and  _198
REMARK   78  A    between atoms: _197  and  _200
REMARK   79  A    between atoms: _200  and  _201
REMARK   80  A    between atoms: _204  and  _206
REMARK   81  A    between atoms: _206  and  _207
REMARK   82  A    between atoms: _206  and  _209
REMARK   83  A    between atoms: _211  and  _213
REMARK   84  A    between atoms: _213  and  _214
REMARK   85  A    between atoms: _213  and  _216
REMARK   86  A    between atoms: _216  and  _217
REMARK   87  A    between atoms: _220  and  _222
REMARK   88  A    between atoms: _222  and  _223
REMARK   89  A    between atoms: _222  and  _225
REMARK   90  A    between atoms: _225  and  _226
REMARK   91  A    between atoms: _226  and  _227
REMARK   92  A    between atoms: _227  and  _228
REMARK   93  A    between atoms: _237  and  _239
REMARK   94  A    between atoms: _239  and  _240
REMARK   95  A    between atoms: _239  and  _242
REMARK   96  A    between atoms: _242  and  _243
REMARK   97  A    between atoms: _249  and  _251
REMARK   98  A    between atoms: _251  and  _252
REMARK   99  A    between atoms: _251  and  _254
REMARK  100  A    between atoms: _254  and  _255
REMARK  101  A    between atoms: _255  and  _256
REMARK  102  A    between atoms: _261  and  _263
REMARK  103  A    between atoms: _263  and  _264
REMARK  104  A    between atoms: _263  and  _266
REMARK  105  A    between atoms: _266  and  _267
REMARK  106  A    between atoms: _270  and  _272
REMARK  107  A    between atoms: _272  and  _273
REMARK  108  A    between atoms: _272  and  _275
REMARK  109  A    between atoms: _275  and  _276
REMARK  110  A    between atoms: _281  and  _283
REMARK  111  A    between atoms: _283  and  _284
REMARK  112  A    between atoms: _287  and  _289
REMARK  113  A    between atoms: _289  and  _290
REMARK  114  A    between atoms: _289  and  _292
REMARK  115  A    between atoms: _292  and  _293
REMARK  116  A    between atoms: _296  and  _298
REMARK  117  A    between atoms: _298  and  _299
REMARK  118  A    between atoms: _298  and  _301
REMARK  119  A    between atoms: _301  and  _302
REMARK  120  A    between atoms: _305  and  _307
REMARK  121  A    between atoms: _307  and  _308
REMARK  122  A    between atoms: _307  and  _310
REMARK  123  A    between atoms: _310  and  _311
REMARK  124  A    between atoms: _311  and  _312
REMARK  125  A    between atoms: _312  and  _313
REMARK  126  A    between atoms: _322  and  _324
REMARK  127  A    between atoms: _324  and  _325
REMARK  128  A    between atoms: _324  and  _327
REMARK  129  A    between atoms: _327  and  _328
REMARK  130  A    between atoms: _328  and  _329
REMARK  131  A    between atoms: _329  and  _330
REMARK  132  A    between atoms: _330  and  _331
REMARK  133  A    between atoms: _335  and  _337
REMARK  134  A    between atoms: _337  and  _338
REMARK  135  A    between atoms: _337  and  _340
REMARK  136  A    between atoms: _340  and  _341
REMARK  137  A    between atoms: _344  and  _346
REMARK  138  A    between atoms: _346  and  _347
REMARK  139  A    between atoms: _350  and  _352
REMARK  140  A    between atoms: _352  and  _353
REMARK  141  A    between atoms: _352  and  _355
REMARK  142  A    between atoms: _358  and  _360
REMARK  143  A    between atoms: _360  and  _361
REMARK  144  A    between atoms: _360  and  _363
REMARK  145  A    between atoms: _363  and  _364
REMARK  146  A    between atoms: _369  and  _371
REMARK  147  A    between atoms: _371  and  _372
REMARK  148  A    between atoms: _371  and  _374
REMARK  149  A    between atoms: _374  and  _375
REMARK  150  A    between atoms: _375  and  _376
REMARK  151  A    between atoms: _378  and  _380
REMARK  152  A    between atoms: _380  and  _381
REMARK  153  A    between atoms: _380  and  _383
REMARK  154  A    between atoms: _386  and  _388
REMARK  155  A    between atoms: _388  and  _389
REMARK  156  A    between atoms: _388  and  _391
REMARK  157  A    between atoms: _391  and  _392
REMARK  158  A    between atoms: _395  and  _397
REMARK  159  A    between atoms: _397  and  _398
REMARK  160  A    between atoms: _397  and  _400
REMARK  161  A    between atoms: _400  and  _401
REMARK  162  A    between atoms: _404  and  _406
REMARK  163  A    between atoms: _406  and  _407
REMARK  164  A    between atoms: _406  and  _409
REMARK  165  A    between atoms: _412  and  _414
REMARK  166  A    between atoms: _414  and  _415
REMARK  167  A    between atoms: _418  and  _420
REMARK  168  A    between atoms: _420  and  _421
REMARK  169  A    between atoms: _424  and  _426
REMARK  170  A    between atoms: _426  and  _427
REMARK  171  A    between atoms: _426  and  _429
REMARK  172  A    between atoms: _429  and  _430
REMARK  173  A    between atoms: _433  and  _435
REMARK  174  A    between atoms: _435  and  _436
REMARK  175  A    between atoms: _435  and  _438
REMARK  176  A    between atoms: _438  and  _439
REMARK  177  A    between atoms: _445  and  _447
REMARK  178  A    between atoms: _447  and  _448
REMARK  179  A    between atoms: _447  and  _450
REMARK  180  A    between atoms: _450  and  _451
REMARK  181  A    between atoms: _455  and  _456
REMARK  182  A    between atoms: _461  and  _463
REMARK  183  A    between atoms: _463  and  _464
REMARK  184  A    between atoms: _463  and  _466
REMARK  185  A    between atoms: _466  and  _467
REMARK  186  A    between atoms: _472  and  _474
REMARK  187  A    between atoms: _474  and  _475
REMARK  188  A    between atoms: _474  and  _477
REMARK  189  A    between atoms: _477  and  _478
REMARK  190  A    between atoms: _483  and  _485
REMARK  191  A    between atoms: _485  and  _486
REMARK  192  A    between atoms: _485  and  _488
REMARK  193  A    between atoms: _491  and  _493
REMARK  194  A    between atoms: _493  and  _494
REMARK  195  A    between atoms: _493  and  _496
REMARK  196  A    between atoms: _496  and  _497
REMARK  197  A    between atoms: _497  and  _498
REMARK  198  A    between atoms: _498  and  _499
REMARK  199  A    between atoms: _499  and  _500
REMARK  200  A    between atoms: _504  and  _506
REMARK  201  A    between atoms: _506  and  _507
REMARK  202  A    between atoms: _506  and  _509
REMARK  203  A    between atoms: _509  and  _510
REMARK  204  A    between atoms: _513  and  _515
REMARK  205  A    between atoms: _515  and  _516
REMARK  206  A    between atoms: _519  and  _521
REMARK  207  A    between atoms: _521  and  _522
REMARK  208  A    between atoms: _521  and  _524
REMARK  209  A    between atoms: _527  and  _529
REMARK  210  A    between atoms: _529  and  _530
REMARK  211  A    between atoms: _529  and  _532
REMARK  212  A    between atoms: _532  and  _533
REMARK  213  A    between atoms: _536  and  _538
REMARK  214  A    between atoms: _538  and  _539
REMARK  215  A    between atoms: _538  and  _541
REMARK  216  A    between atoms: _541  and  _542
REMARK  217  A    between atoms: _548  and  _550
REMARK  218  A    between atoms: _550  and  _551
REMARK  219  A    between atoms: _550  and  _553
REMARK  220  A    between atoms: _553  and  _554
REMARK  221  A    between atoms: _557  and  _559
REMARK  222  A    between atoms: _559  and  _560
REMARK  223  A    between atoms: _559  and  _562
REMARK  224  A    between atoms: _562  and  _563
REMARK                            x       y       z     vdW  Elec       q    Type
REMARK                         _______ _______ _______ _____ _____    ______ ____
ROOT
ATOM      1  O   HOH     1      13.666  71.673  46.512  0.00  0.00    +0.000 OA
ENDROOT
TORSDOF 0
REMARK  Name = ../refined-set-2016/4o2b/4o2b_pocket.pdb
REMARK  224 active torsions:
REMARK  status: ('A' for Active; 'I' for Inactive)
REMARK    1  A    between atoms: _1  and  _3
REMARK    2  A    between atoms: _3  and  _4
REMARK    3  A    between atoms: _3  and  _6
REMARK    4  A    between atoms: _6  and  _7
REMARK    5  A    between atoms: _7  and  _8
REMARK    6  A    between atoms: _13  and  _15
REMARK    7  A    between atoms: _15  and  _16
REMARK    8  A    between atoms: _19  and  _21
REMARK    9  A    between atoms: _21  and  _22
REMARK   10  A    between atoms: _21  and  _24
REMARK   11  A    between atoms: _24  and  _25
REMARK   12  A    between atoms: _31  and  _32
REMARK   13  A    between atoms: _37  and  _39
REMARK   14  A    between atoms: _39  and  _40
REMARK   15  A    between atoms: _39  and  _42
REMARK   16  A    between atoms: _45  and  _47
REMARK   17  A    between atoms: _47  and  _48
REMARK   18  A    between atoms: _47  and  _50
REMARK   19  A    between atoms: _50  and  _51
REMARK   20  A    between atoms: _53  and  _55
REMARK   21  A    between atoms: _55  and  _56
REMARK   22  A    between atoms: _55  and  _58
REMARK   23  A    between atoms: _58  and  _59
REMARK   24  A    between atoms: _62  and  _64
REMARK   25  A    between atoms: _64  and  _65
REMARK   26  A    between atoms: _68  and  _70
REMARK   27  A    between atoms: _70  and  _71
REMARK   28  A    between atoms: _70  and  _73
REMARK   29  A    between atoms: _76  and  _78
REMARK   30  A    between atoms: _78  and  _79
REMARK   31  A    between atoms: _78  and  _81
REMARK   32  A    between atoms: _84  and  _86
REMARK   33  A    between atoms: _86  and  _87
REMARK   34  A    between atoms: _86  and  _89
REMARK   35  A    between atoms: _89  and  _90
REMARK   36  A    between atoms: _90  and  _91
REMARK   37  A    between atoms: _94  and  _96
REMARK   38  A    between atoms: _96  and  _97
REMARK   39  A    between atoms: _96  and  _99
REMARK   40  A    between atoms: _99  and  _100
REMARK   41  A    between atoms: _105  and  _106
REMARK   42  A    between atoms: _108  and  _110
REMARK   43  A    between atoms: _110  and  _111
REMARK   44  A    between atoms: _110  and  _113
REMARK   45  A    between atoms: _113  and  _114
REMARK   46  A    between atoms: _120  and  _122
REMARK   47  A    between atoms: _122  and  _123
REMARK   48  A    between atoms: _122  and  _125
REMARK   49  A    between atoms: _125  and  _126
REMARK   50  A    between atoms: _126  and  _127
REMARK   51  A    between atoms: _127  and  _128
REMARK   52  A    between atoms: _137  and  _139
REMARK   53  A    between atoms: _139  and  _140
REMARK   54  A    between atoms: _139  and  _142
REMARK   55  A    between atoms: _142  and  _143
REMARK   56  A    between atoms: _143  and  _144
REMARK   57  A    between atoms: _149  and  _151
REMARK   58  A    between atoms: _151  and  _152
REMARK   59  A    between atoms: _151  and  _154
REMARK   60  A    between atoms: _154  and  _155
REMARK   61  A    between atoms: _155  and  _156
REMARK   62  A    between atoms: _159  and  _161
REMARK   63  A    between atoms: _161  and  _162
REMARK   64  A    between atoms: _161  and  _164
REMARK   65  A    between atoms: _164  and  _165
REMARK   66  A    between atoms: _170  and  _171
REMARK   67  A    between atoms: _173  and  _175
REMARK   68  A    between atoms: _175  and  _176
REMARK   69  A    between atoms: _178  and  _180
REMARK   70  A    between atoms: _180  and  _181
REMARK   71  A    between atoms: _180  and  _183
REMARK   72  A    between atoms: _186  and  _188
REMARK   73  A    between atoms: _188  and  _189
REMARK   74  A    between atoms: _188  and  _191
REMARK   75  A    between atoms: _191  and  _192
REMARK   76  A    between atoms: _195  and  _197
REMARK   77  A    between atoms: _197  and  _198
REMARK   78  A    between atoms: _197  and  _200
REMARK   79  A    between atoms: _200  and  _201
REMARK   80  A    between atoms: _204  and  _206
REMARK   81  A    between atoms: _206  and  _207
REMARK   82  A    between atoms: _206  and  _209
REMARK   83  A    between atoms: _211  and  _213
REMARK   84  A    between atoms: _213  and  _214
REMARK   85  A    between atoms: _213  and  _216
REMARK   86  A    between atoms: _216  and  _217
REMARK   87  A    between atoms: _220  and  _222
REMARK   88  A    between atoms: _222  and  _223
REMARK   89  A    between atoms: _222  and  _225
REMARK   90  A    between atoms: _225  and  _226
REMARK   91  A    between atoms: _226  and  _227
REMARK   92  A    between atoms: _227  and  _228
REMARK   93  A    between atoms: _237  and  _239
REMARK   94  A    between atoms: _239  and  _240
REMARK   95  A    between atoms: _239  and  _242
REMARK   96  A    between atoms: _242  and  _243
REMARK   97  A    between atoms: _249  and  _251
REMARK   98  A    between atoms: _251  and  _252
REMARK   99  A    between atoms: _251  and  _254
REMARK  100  A    between atoms: _254  and  _255
REMARK  101  A    between atoms: _255  and  _256
REMARK  102  A    between atoms: _261  and  _263
REMARK  103  A    between atoms: _263  and  _264
REMARK  104  A    between atoms: _263  and  _266
REMARK  105  A    between atoms: _266  and  _267
REMARK  106  A    between atoms: _270  and  _272
REMARK  107  A    between atoms: _272  and  _273
REMARK  108  A    between atoms: _272  and  _275
REMARK  109  A    between atoms: _275  and  _276
REMARK  110  A    between atoms: _281  and  _283
REMARK  111  A    between atoms: _283  and  _284
REMARK  112  A    between atoms: _287  and  _289
REMARK  113  A    between atoms: _289  and  _290
REMARK  114  A    between atoms: _289  and  _292
REMARK  115  A    between atoms: _292  and  _293
REMARK  116  A    between atoms: _296  and  _298
REMARK  117  A    between atoms: _298  and  _299
REMARK  118  A    between atoms: _298  and  _301
REMARK  119  A    between atoms: _301  and  _302
REMARK  120  A    between atoms: _305  and  _307
REMARK  121  A    between atoms: _307  and  _308
REMARK  122  A    between atoms: _307  and  _310
REMARK  123  A    between atoms: _310  and  _311
REMARK  124  A    between atoms: _311  and  _312
REMARK  125  A    between atoms: _312  and  _313
REMARK  126  A    between atoms: _322  and  _324
REMARK  127  A    between atoms: _324  and  _325
REMARK  128  A    between atoms: _324  and  _327
REMARK  129  A    between atoms: _327  and  _328
REMARK  130  A    between atoms: _328  and  _329
REMARK  131  A    between atoms: _329  and  _330
REMARK  132  A    between atoms: _330  and  _331
REMARK  133  A    between atoms: _335  and  _337
REMARK  134  A    between atoms: _337  and  _338
REMARK  135  A    between atoms: _337  and  _340
REMARK  136  A    between atoms: _340  and  _341
REMARK  137  A    between atoms: _344  and  _346
REMARK  138  A    between atoms: _346  and  _347
REMARK  139  A    between atoms: _350  and  _352
REMARK  140  A    between atoms: _352  and  _353
REMARK  141  A    between atoms: _352  and  _355
REMARK  142  A    between atoms: _358  and  _360
REMARK  143  A    between atoms: _360  and  _361
REMARK  144  A    between atoms: _360  and  _363
REMARK  145  A    between atoms: _363  and  _364
REMARK  146  A    between atoms: _369  and  _371
REMARK  147  A    between atoms: _371  and  _372
REMARK  148  A    between atoms: _371  and  _374
REMARK  149  A    between atoms: _374  and  _375
REMARK  150  A    between atoms: _375  and  _376
REMARK  151  A    between atoms: _378  and  _380
REMARK  152  A    between atoms: _380  and  _381
REMARK  153  A    between atoms: _380  and  _383
REMARK  154  A    between atoms: _386  and  _388
REMARK  155  A    between atoms: _388  and  _389
REMARK  156  A    between atoms: _388  and  _391
REMARK  157  A    between atoms: _391  and  _392
REMARK  158  A    between atoms: _395  and  _397
REMARK  159  A    between atoms: _397  and  _398
REMARK  160  A    between atoms: _397  and  _400
REMARK  161  A    between atoms: _400  and  _401
REMARK  162  A    between atoms: _404  and  _406
REMARK  163  A    between atoms: _406  and  _407
REMARK  164  A    between atoms: _406  and  _409
REMARK  165  A    between atoms: _412  and  _414
REMARK  166  A    between atoms: _414  and  _415
REMARK  167  A    between atoms: _418  and  _420
REMARK  168  A    between atoms: _420  and  _421
REMARK  169  A    between atoms: _424  and  _426
REMARK  170  A    between atoms: _426  and  _427
REMARK  171  A    between atoms: _426  and  _429
REMARK  172  A    between atoms: _429  and  _430
REMARK  173  A    between atoms: _433  and  _435
REMARK  174  A    between atoms: _435  and  _436
REMARK  175  A    between atoms: _435  and  _438
REMARK  176  A    between atoms: _438  and  _439
REMARK  177  A    between atoms: _445  and  _447
REMARK  178  A    between atoms: _447  and  _448
REMARK  179  A    between atoms: _447  and  _450
REMARK  180  A    between atoms: _450  and  _451
REMARK  181  A    between atoms: _455  and  _456
REMARK  182  A    between atoms: _461  and  _463
REMARK  183  A    between atoms: _463  and  _464
REMARK  184  A    between atoms: _463  and  _466
REMARK  185  A    between atoms: _466  and  _467
REMARK  186  A    between atoms: _472  and  _474
REMARK  187  A    between atoms: _474  and  _475
REMARK  188  A    between atoms: _474  and  _477
REMARK  189  A    between atoms: _477  and  _478
REMARK  190  A    between atoms: _483  and  _485
REMARK  191  A    between atoms: _485  and  _486
REMARK  192  A    between atoms: _485  and  _488
REMARK  193  A    between atoms: _491  and  _493
REMARK  194  A    between atoms: _493  and  _494
REMARK  195  A    between atoms: _493  and  _496
REMARK  196  A    between atoms: _496  and  _497
REMARK  197  A    between atoms: _497  and  _498
REMARK  198  A    between atoms: _498  and  _499
REMARK  199  A    between atoms: _499  and  _500
REMARK  200  A    between atoms: _504  and  _506
REMARK  201  A    between atoms: _506  and  _507
REMARK  202  A    between atoms: _506  and  _509
REMARK  203  A    between atoms: _509  and  _510
REMARK  204  A    between atoms: _513  and  _515
REMARK  205  A    between atoms: _515  and  _516
REMARK  206  A    between atoms: _519  and  _521
REMARK  207  A    between atoms: _521  and  _522
REMARK  208  A    between atoms: _521  and  _524
REMARK  209  A    between atoms: _527  and  _529
REMARK  210  A    between atoms: _529  and  _530
REMARK  211  A    between atoms: _529  and  _532
REMARK  212  A    between atoms: _532  and  _533
REMARK  213  A    between atoms: _536  and  _538
REMARK  214  A    between atoms: _538  and  _539
REMARK  215  A    between atoms: _538  and  _541
REMARK  216  A    between atoms: _541  and  _542
REMARK  217  A    between atoms: _548  and  _550
REMARK  218  A    between atoms: _550  and  _551
REMARK  219  A    between atoms: _550  and  _553
REMARK  220  A    between atoms: _553  and  _554
REMARK  221  A    between atoms: _557  and  _559
REMARK  222  A    between atoms: _559  and  _560
REMARK  223  A    between atoms: _559  and  _562
REMARK  224  A    between atoms: _562  and  _563
REMARK                            x       y       z     vdW  Elec       q    Type
REMARK                         _______ _______ _______ _____ _____    ______ ____
ROOT
ATOM      1  O   HOH     1      17.589  75.479  46.052  0.00  0.00    +0.000 OA
ENDROOT
TORSDOF 0
REMARK  Name = ../refined-set-2016/4o2b/4o2b_pocket.pdb
REMARK  224 active torsions:
REMARK  status: ('A' for Active; 'I' for Inactive)
REMARK    1  A    between atoms: _1  and  _3
REMARK    2  A    between atoms: _3  and  _4
REMARK    3  A    between atoms: _3  and  _6
REMARK    4  A    between atoms: _6  and  _7
REMARK    5  A    between atoms: _7  and  _8
REMARK    6  A    between atoms: _13  and  _15
REMARK    7  A    between atoms: _15  and  _16
REMARK    8  A    between atoms: _19  and  _21
REMARK    9  A    between atoms: _21  and  _22
REMARK   10  A    between atoms: _21  and  _24
REMARK   11  A    between atoms: _24  and  _25
REMARK   12  A    between atoms: _31  and  _32
REMARK   13  A    between atoms: _37  and  _39
REMARK   14  A    between atoms: _39  and  _40
REMARK   15  A    between atoms: _39  and  _42
REMARK   16  A    between atoms: _45  and  _47
REMARK   17  A    between atoms: _47  and  _48
REMARK   18  A    between atoms: _47  and  _50
REMARK   19  A    between atoms: _50  and  _51
REMARK   20  A    between atoms: _53  and  _55
REMARK   21  A    between atoms: _55  and  _56
REMARK   22  A    between atoms: _55  and  _58
REMARK   23  A    between atoms: _58  and  _59
REMARK   24  A    between atoms: _62  and  _64
REMARK   25  A    between atoms: _64  and  _65
REMARK   26  A    between atoms: _68  and  _70
REMARK   27  A    between atoms: _70  and  _71
REMARK   28  A    between atoms: _70  and  _73
REMARK   29  A    between atoms: _76  and  _78
REMARK   30  A    between atoms: _78  and  _79
REMARK   31  A    between atoms: _78  and  _81
REMARK   32  A    between atoms: _84  and  _86
REMARK   33  A    between atoms: _86  and  _87
REMARK   34  A    between atoms: _86  and  _89
REMARK   35  A    between atoms: _89  and  _90
REMARK   36  A    between atoms: _90  and  _91
REMARK   37  A    between atoms: _94  and  _96
REMARK   38  A    between atoms: _96  and  _97
REMARK   39  A    between atoms: _96  and  _99
REMARK   40  A    between atoms: _99  and  _100
REMARK   41  A    between atoms: _105  and  _106
REMARK   42  A    between atoms: _108  and  _110
REMARK   43  A    between atoms: _110  and  _111
REMARK   44  A    between atoms: _110  and  _113
REMARK   45  A    between atoms: _113  and  _114
REMARK   46  A    between atoms: _120  and  _122
REMARK   47  A    between atoms: _122  and  _123
REMARK   48  A    between atoms: _122  and  _125
REMARK   49  A    between atoms: _125  and  _126
REMARK   50  A    between atoms: _126  and  _127
REMARK   51  A    between atoms: _127  and  _128
REMARK   52  A    between atoms: _137  and  _139
REMARK   53  A    between atoms: _139  and  _140
REMARK   54  A    between atoms: _139  and  _142
REMARK   55  A    between atoms: _142  and  _143
REMARK   56  A    between atoms: _143  and  _144
REMARK   57  A    between atoms: _149  and  _151
REMARK   58  A    between atoms: _151  and  _152
REMARK   59  A    between atoms: _151  and  _154
REMARK   60  A    between atoms: _154  and  _155
REMARK   61  A    between atoms: _155  and  _156
REMARK   62  A    between atoms: _159  and  _161
REMARK   63  A    between atoms: _161  and  _162
REMARK   64  A    between atoms: _161  and  _164
REMARK   65  A    between atoms: _164  and  _165
REMARK   66  A    between atoms: _170  and  _171
REMARK   67  A    between atoms: _173  and  _175
REMARK   68  A    between atoms: _175  and  _176
REMARK   69  A    between atoms: _178  and  _180
REMARK   70  A    between atoms: _180  and  _181
REMARK   71  A    between atoms: _180  and  _183
REMARK   72  A    between atoms: _186  and  _188
REMARK   73  A    between atoms: _188  and  _189
REMARK   74  A    between atoms: _188  and  _191
REMARK   75  A    between atoms: _191  and  _192
REMARK   76  A    between atoms: _195  and  _197
REMARK   77  A    between atoms: _197  and  _198
REMARK   78  A    between atoms: _197  and  _200
REMARK   79  A    between atoms: _200  and  _201
REMARK   80  A    between atoms: _204  and  _206
REMARK   81  A    between atoms: _206  and  _207
REMARK   82  A    between atoms: _206  and  _209
REMARK   83  A    between atoms: _211  and  _213
REMARK   84  A    between atoms: _213  and  _214
REMARK   85  A    between atoms: _213  and  _216
REMARK   86  A    between atoms: _216  and  _217
REMARK   87  A    between atoms: _220  and  _222
REMARK   88  A    between atoms: _222  and  _223
REMARK   89  A    between atoms: _222  and  _225
REMARK   90  A    between atoms: _225  and  _226
REMARK   91  A    between atoms: _226  and  _227
REMARK   92  A    between atoms: _227  and  _228
REMARK   93  A    between atoms: _237  and  _239
REMARK   94  A    between atoms: _239  and  _240
REMARK   95  A    between atoms: _239  and  _242
REMARK   96  A    between atoms: _242  and  _243
REMARK   97  A    between atoms: _249  and  _251
REMARK   98  A    between atoms: _251  and  _252
REMARK   99  A    between atoms: _251  and  _254
REMARK  100  A    between atoms: _254  and  _255
REMARK  101  A    between atoms: _255  and  _256
REMARK  102  A    between atoms: _261  and  _263
REMARK  103  A    between atoms: _263  and  _264
REMARK  104  A    between atoms: _263  and  _266
REMARK  105  A    between atoms: _266  and  _267
REMARK  106  A    between atoms: _270  and  _272
REMARK  107  A    between atoms: _272  and  _273
REMARK  108  A    between atoms: _272  and  _275
REMARK  109  A    between atoms: _275  and  _276
REMARK  110  A    between atoms: _281  and  _283
REMARK  111  A    between atoms: _283  and  _284
REMARK  112  A    between atoms: _287  and  _289
REMARK  113  A    between atoms: _289  and  _290
REMARK  114  A    between atoms: _289  and  _292
REMARK  115  A    between atoms: _292  and  _293
REMARK  116  A    between atoms: _296  and  _298
REMARK  117  A    between atoms: _298  and  _299
REMARK  118  A    between atoms: _298  and  _301
REMARK  119  A    between atoms: _301  and  _302
REMARK  120  A    between atoms: _305  and  _307
REMARK  121  A    between atoms: _307  and  _308
REMARK  122  A    between atoms: _307  and  _310
REMARK  123  A    between atoms: _310  and  _311
REMARK  124  A    between atoms: _311  and  _312
REMARK  125  A    between atoms: _312  and  _313
REMARK  126  A    between atoms: _322  and  _324
REMARK  127  A    between atoms: _324  and  _325
REMARK  128  A    between atoms: _324  and  _327
REMARK  129  A    between atoms: _327  and  _328
REMARK  130  A    between atoms: _328  and  _329
REMARK  131  A    between atoms: _329  and  _330
REMARK  132  A    between atoms: _330  and  _331
REMARK  133  A    between atoms: _335  and  _337
REMARK  134  A    between atoms: _337  and  _338
REMARK  135  A    between atoms: _337  and  _340
REMARK  136  A    between atoms: _340  and  _341
REMARK  137  A    between atoms: _344  and  _346
REMARK  138  A    between atoms: _346  and  _347
REMARK  139  A    between atoms: _350  and  _352
REMARK  140  A    between atoms: _352  and  _353
REMARK  141  A    between atoms: _352  and  _355
REMARK  142  A    between atoms: _358  and  _360
REMARK  143  A    between atoms: _360  and  _361
REMARK  144  A    between atoms: _360  and  _363
REMARK  145  A    between atoms: _363  and  _364
REMARK  146  A    between atoms: _369  and  _371
REMARK  147  A    between atoms: _371  and  _372
REMARK  148  A    between atoms: _371  and  _374
REMARK  149  A    between atoms: _374  and  _375
REMARK  150  A    between atoms: _375  and  _376
REMARK  151  A    between atoms: _378  and  _380
REMARK  152  A    between atoms: _380  and  _381
REMARK  153  A    between atoms: _380  and  _383
REMARK  154  A    between atoms: _386  and  _388
REMARK  155  A    between atoms: _388  and  _389
REMARK  156  A    between atoms: _388  and  _391
REMARK  157  A    between atoms: _391  and  _392
REMARK  158  A    between atoms: _395  and  _397
REMARK  159  A    between atoms: _397  and  _398
REMARK  160  A    between atoms: _397  and  _400
REMARK  161  A    between atoms: _400  and  _401
REMARK  162  A    between atoms: _404  and  _406
REMARK  163  A    between atoms: _406  and  _407
REMARK  164  A    between atoms: _406  and  _409
REMARK  165  A    between atoms: _412  and  _414
REMARK  166  A    between atoms: _414  and  _415
REMARK  167  A    between atoms: _418  and  _420
REMARK  168  A    between atoms: _420  and  _421
REMARK  169  A    between atoms: _424  and  _426
REMARK  170  A    between atoms: _426  and  _427
REMARK  171  A    between atoms: _426  and  _429
REMARK  172  A    between atoms: _429  and  _430
REMARK  173  A    between atoms: _433  and  _435
REMARK  174  A    between atoms: _435  and  _436
REMARK  175  A    between atoms: _435  and  _438
REMARK  176  A    between atoms: _438  and  _439
REMARK  177  A    between atoms: _445  and  _447
REMARK  178  A    between atoms: _447  and  _448
REMARK  179  A    between atoms: _447  and  _450
REMARK  180  A    between atoms: _450  and  _451
REMARK  181  A    between atoms: _455  and  _456
REMARK  182  A    between atoms: _461  and  _463
REMARK  183  A    between atoms: _463  and  _464
REMARK  184  A    between atoms: _463  and  _466
REMARK  185  A    between atoms: _466  and  _467
REMARK  186  A    between atoms: _472  and  _474
REMARK  187  A    between atoms: _474  and  _475
REMARK  188  A    between atoms: _474  and  _477
REMARK  189  A    between atoms: _477  and  _478
REMARK  190  A    between atoms: _483  and  _485
REMARK  191  A    between atoms: _485  and  _486
REMARK  192  A    between atoms: _485  and  _488
REMARK  193  A    between atoms: _491  and  _493
REMARK  194  A    between atoms: _493  and  _494
REMARK  195  A    between atoms: _493  and  _496
REMARK  196  A    between atoms: _496  and  _497
REMARK  197  A    between atoms: _497  and  _498
REMARK  198  A    between atoms: _498  and  _499
REMARK  199  A    between atoms: _499  and  _500
REMARK  200  A    between atoms: _504  and  _506
REMARK  201  A    between atoms: _506  and  _507
REMARK  202  A    between atoms: _506  and  _509
REMARK  203  A    between atoms: _509  and  _510
REMARK  204  A    between atoms: _513  and  _515
REMARK  205  A    between atoms: _515  and  _516
REMARK  206  A    between atoms: _519  and  _521
REMARK  207  A    between atoms: _521  and  _522
REMARK  208  A    between atoms: _521  and  _524
REMARK  209  A    between atoms: _527  and  _529
REMARK  210  A    between atoms: _529  and  _530
REMARK  211  A    between atoms: _529  and  _532
REMARK  212  A    between atoms: _532  and  _533
REMARK  213  A    between atoms: _536  and  _538
REMARK  214  A    between atoms: _538  and  _539
REMARK  215  A    between atoms: _538  and  _541
REMARK  216  A    between atoms: _541  and  _542
REMARK  217  A    between atoms: _548  and  _550
REMARK  218  A    between atoms: _550  and  _551
REMARK  219  A    between atoms: _550  and  _553
REMARK  220  A    between atoms: _553  and  _554
REMARK  221  A    between atoms: _557  and  _559
REMARK  222  A    between atoms: _559  and  _560
REMARK  223  A    between atoms: _559  and  _562
REMARK  224  A    between atoms: _562  and  _563
REMARK                            x       y       z     vdW  Elec       q    Type
REMARK                         _______ _______ _______ _____ _____    ______ ____
ROOT
ATOM      1  O   HOH     1      20.243  72.601  34.272  0.00  0.00    +0.000 OA
ENDROOT
TORSDOF 0
REMARK  Name = ../refined-set-2016/4o2b/4o2b_pocket.pdb
REMARK  224 active torsions:
REMARK  status: ('A' for Active; 'I' for Inactive)
REMARK    1  A    between atoms: _1  and  _3
REMARK    2  A    between atoms: _3  and  _4
REMARK    3  A    between atoms: _3  and  _6
REMARK    4  A    between atoms: _6  and  _7
REMARK    5  A    between atoms: _7  and  _8
REMARK    6  A    between atoms: _13  and  _15
REMARK    7  A    between atoms: _15  and  _16
REMARK    8  A    between atoms: _19  and  _21
REMARK    9  A    between atoms: _21  and  _22
REMARK   10  A    between atoms: _21  and  _24
REMARK   11  A    between atoms: _24  and  _25
REMARK   12  A    between atoms: _31  and  _32
REMARK   13  A    between atoms: _37  and  _39
REMARK   14  A    between atoms: _39  and  _40
REMARK   15  A    between atoms: _39  and  _42
REMARK   16  A    between atoms: _45  and  _47
REMARK   17  A    between atoms: _47  and  _48
REMARK   18  A    between atoms: _47  and  _50
REMARK   19  A    between atoms: _50  and  _51
REMARK   20  A    between atoms: _53  and  _55
REMARK   21  A    between atoms: _55  and  _56
REMARK   22  A    between atoms: _55  and  _58
REMARK   23  A    between atoms: _58  and  _59
REMARK   24  A    between atoms: _62  and  _64
REMARK   25  A    between atoms: _64  and  _65
REMARK   26  A    between atoms: _68  and  _70
REMARK   27  A    between atoms: _70  and  _71
REMARK   28  A    between atoms: _70  and  _73
REMARK   29  A    between atoms: _76  and  _78
REMARK   30  A    between atoms: _78  and  _79
REMARK   31  A    between atoms: _78  and  _81
REMARK   32  A    between atoms: _84  and  _86
REMARK   33  A    between atoms: _86  and  _87
REMARK   34  A    between atoms: _86  and  _89
REMARK   35  A    between atoms: _89  and  _90
REMARK   36  A    between atoms: _90  and  _91
REMARK   37  A    between atoms: _94  and  _96
REMARK   38  A    between atoms: _96  and  _97
REMARK   39  A    between atoms: _96  and  _99
REMARK   40  A    between atoms: _99  and  _100
REMARK   41  A    between atoms: _105  and  _106
REMARK   42  A    between atoms: _108  and  _110
REMARK   43  A    between atoms: _110  and  _111
REMARK   44  A    between atoms: _110  and  _113
REMARK   45  A    between atoms: _113  and  _114
REMARK   46  A    between atoms: _120  and  _122
REMARK   47  A    between atoms: _122  and  _123
REMARK   48  A    between atoms: _122  and  _125
REMARK   49  A    between atoms: _125  and  _126
REMARK   50  A    between atoms: _126  and  _127
REMARK   51  A    between atoms: _127  and  _128
REMARK   52  A    between atoms: _137  and  _139
REMARK   53  A    between atoms: _139  and  _140
REMARK   54  A    between atoms: _139  and  _142
REMARK   55  A    between atoms: _142  and  _143
REMARK   56  A    between atoms: _143  and  _144
REMARK   57  A    between atoms: _149  and  _151
REMARK   58  A    between atoms: _151  and  _152
REMARK   59  A    between atoms: _151  and  _154
REMARK   60  A    between atoms: _154  and  _155
REMARK   61  A    between atoms: _155  and  _156
REMARK   62  A    between atoms: _159  and  _161
REMARK   63  A    between atoms: _161  and  _162
REMARK   64  A    between atoms: _161  and  _164
REMARK   65  A    between atoms: _164  and  _165
REMARK   66  A    between atoms: _170  and  _171
REMARK   67  A    between atoms: _173  and  _175
REMARK   68  A    between atoms: _175  and  _176
REMARK   69  A    between atoms: _178  and  _180
REMARK   70  A    between atoms: _180  and  _181
REMARK   71  A    between atoms: _180  and  _183
REMARK   72  A    between atoms: _186  and  _188
REMARK   73  A    between atoms: _188  and  _189
REMARK   74  A    between atoms: _188  and  _191
REMARK   75  A    between atoms: _191  and  _192
REMARK   76  A    between atoms: _195  and  _197
REMARK   77  A    between atoms: _197  and  _198
REMARK   78  A    between atoms: _197  and  _200
REMARK   79  A    between atoms: _200  and  _201
REMARK   80  A    between atoms: _204  and  _206
REMARK   81  A    between atoms: _206  and  _207
REMARK   82  A    between atoms: _206  and  _209
REMARK   83  A    between atoms: _211  and  _213
REMARK   84  A    between atoms: _213  and  _214
REMARK   85  A    between atoms: _213  and  _216
REMARK   86  A    between atoms: _216  and  _217
REMARK   87  A    between atoms: _220  and  _222
REMARK   88  A    between atoms: _222  and  _223
REMARK   89  A    between atoms: _222  and  _225
REMARK   90  A    between atoms: _225  and  _226
REMARK   91  A    between atoms: _226  and  _227
REMARK   92  A    between atoms: _227  and  _228
REMARK   93  A    between atoms: _237  and  _239
REMARK   94  A    between atoms: _239  and  _240
REMARK   95  A    between atoms: _239  and  _242
REMARK   96  A    between atoms: _242  and  _243
REMARK   97  A    between atoms: _249  and  _251
REMARK   98  A    between atoms: _251  and  _252
REMARK   99  A    between atoms: _251  and  _254
REMARK  100  A    between atoms: _254  and  _255
REMARK  101  A    between atoms: _255  and  _256
REMARK  102  A    between atoms: _261  and  _263
REMARK  103  A    between atoms: _263  and  _264
REMARK  104  A    between atoms: _263  and  _266
REMARK  105  A    between atoms: _266  and  _267
REMARK  106  A    between atoms: _270  and  _272
REMARK  107  A    between atoms: _272  and  _273
REMARK  108  A    between atoms: _272  and  _275
REMARK  109  A    between atoms: _275  and  _276
REMARK  110  A    between atoms: _281  and  _283
REMARK  111  A    between atoms: _283  and  _284
REMARK  112  A    between atoms: _287  and  _289
REMARK  113  A    between atoms: _289  and  _290
REMARK  114  A    between atoms: _289  and  _292
REMARK  115  A    between atoms: _292  and  _293
REMARK  116  A    between atoms: _296  and  _298
REMARK  117  A    between atoms: _298  and  _299
REMARK  118  A    between atoms: _298  and  _301
REMARK  119  A    between atoms: _301  and  _302
REMARK  120  A    between atoms: _305  and  _307
REMARK  121  A    between atoms: _307  and  _308
REMARK  122  A    between atoms: _307  and  _310
REMARK  123  A    between atoms: _310  and  _311
REMARK  124  A    between atoms: _311  and  _312
REMARK  125  A    between atoms: _312  and  _313
REMARK  126  A    between atoms: _322  and  _324
REMARK  127  A    between atoms: _324  and  _325
REMARK  128  A    between atoms: _324  and  _327
REMARK  129  A    between atoms: _327  and  _328
REMARK  130  A    between atoms: _328  and  _329
REMARK  131  A    between atoms: _329  and  _330
REMARK  132  A    between atoms: _330  and  _331
REMARK  133  A    between atoms: _335  and  _337
REMARK  134  A    between atoms: _337  and  _338
REMARK  135  A    between atoms: _337  and  _340
REMARK  136  A    between atoms: _340  and  _341
REMARK  137  A    between atoms: _344  and  _346
REMARK  138  A    between atoms: _346  and  _347
REMARK  139  A    between atoms: _350  and  _352
REMARK  140  A    between atoms: _352  and  _353
REMARK  141  A    between atoms: _352  and  _355
REMARK  142  A    between atoms: _358  and  _360
REMARK  143  A    between atoms: _360  and  _361
REMARK  144  A    between atoms: _360  and  _363
REMARK  145  A    between atoms: _363  and  _364
REMARK  146  A    between atoms: _369  and  _371
REMARK  147  A    between atoms: _371  and  _372
REMARK  148  A    between atoms: _371  and  _374
REMARK  149  A    between atoms: _374  and  _375
REMARK  150  A    between atoms: _375  and  _376
REMARK  151  A    between atoms: _378  and  _380
REMARK  152  A    between atoms: _380  and  _381
REMARK  153  A    between atoms: _380  and  _383
REMARK  154  A    between atoms: _386  and  _388
REMARK  155  A    between atoms: _388  and  _389
REMARK  156  A    between atoms: _388  and  _391
REMARK  157  A    between atoms: _391  and  _392
REMARK  158  A    between atoms: _395  and  _397
REMARK  159  A    between atoms: _397  and  _398
REMARK  160  A    between atoms: _397  and  _400
REMARK  161  A    between atoms: _400  and  _401
REMARK  162  A    between atoms: _404  and  _406
REMARK  163  A    between atoms: _406  and  _407
REMARK  164  A    between atoms: _406  and  _409
REMARK  165  A    between atoms: _412  and  _414
REMARK  166  A    between atoms: _414  and  _415
REMARK  167  A    between atoms: _418  and  _420
REMARK  168  A    between atoms: _420  and  _421
REMARK  169  A    between atoms: _424  and  _426
REMARK  170  A    between atoms: _426  and  _427
REMARK  171  A    between atoms: _426  and  _429
REMARK  172  A    between atoms: _429  and  _430
REMARK  173  A    between atoms: _433  and  _435
REMARK  174  A    between atoms: _435  and  _436
REMARK  175  A    between atoms: _435  and  _438
REMARK  176  A    between atoms: _438  and  _439
REMARK  177  A    between atoms: _445  and  _447
REMARK  178  A    between atoms: _447  and  _448
REMARK  179  A    between atoms: _447  and  _450
REMARK  180  A    between atoms: _450  and  _451
REMARK  181  A    between atoms: _455  and  _456
REMARK  182  A    between atoms: _461  and  _463
REMARK  183  A    between atoms: _463  and  _464
REMARK  184  A    between atoms: _463  and  _466
REMARK  185  A    between atoms: _466  and  _467
REMARK  186  A    between atoms: _472  and  _474
REMARK  187  A    between atoms: _474  and  _475
REMARK  188  A    between atoms: _474  and  _477
REMARK  189  A    between atoms: _477  and  _478
REMARK  190  A    between atoms: _483  and  _485
REMARK  191  A    between atoms: _485  and  _486
REMARK  192  A    between atoms: _485  and  _488
REMARK  193  A    between atoms: _491  and  _493
REMARK  194  A    between atoms: _493  and  _494
REMARK  195  A    between atoms: _493  and  _496
REMARK  196  A    between atoms: _496  and  _497
REMARK  197  A    between atoms: _497  and  _498
REMARK  198  A    between atoms: _498  and  _499
REMARK  199  A    between atoms: _499  and  _500
REMARK  200  A    between atoms: _504  and  _506
REMARK  201  A    between atoms: _506  and  _507
REMARK  202  A    between atoms: _506  and  _509
REMARK  203  A    between atoms: _509  and  _510
REMARK  204  A    between atoms: _513  and  _515
REMARK  205  A    between atoms: _515  and  _516
REMARK  206  A    between atoms: _519  and  _521
REMARK  207  A    between atoms: _521  and  _522
REMARK  208  A    between atoms: _521  and  _524
REMARK  209  A    between atoms: _527  and  _529
REMARK  210  A    between atoms: _529  and  _530
REMARK  211  A    between atoms: _529  and  _532
REMARK  212  A    between atoms: _532  and  _533
REMARK  213  A    between atoms: _536  and  _538
REMARK  214  A    between atoms: _538  and  _539
REMARK  215  A    between atoms: _538  and  _541
REMARK  216  A    between atoms: _541  and  _542
REMARK  217  A    between atoms: _548  and  _550
REMARK  218  A    between atoms: _550  and  _551
REMARK  219  A    between atoms: _550  and  _553
REMARK  220  A    between atoms: _553  and  _554
REMARK  221  A    between atoms: _557  and  _559
REMARK  222  A    between atoms: _559  and  _560
REMARK  223  A    between atoms: _559  and  _562
REMARK  224  A    between atoms: _562  and  _563
REMARK                            x       y       z     vdW  Elec       q    Type
REMARK                         _______ _______ _______ _____ _____    ______ ____
ROOT
ATOM      1  O   HOH     1      21.166  72.081  45.250  0.00  0.00    +0.000 OA
ENDROOT
TORSDOF 0
REMARK  Name = ../refined-set-2016/4o2b/4o2b_pocket.pdb
REMARK  224 active torsions:
REMARK  status: ('A' for Active; 'I' for Inactive)
REMARK    1  A    between atoms: _1  and  _3
REMARK    2  A    between atoms: _3  and  _4
REMARK    3  A    between atoms: _3  and  _6
REMARK    4  A    between atoms: _6  and  _7
REMARK    5  A    between atoms: _7  and  _8
REMARK    6  A    between atoms: _13  and  _15
REMARK    7  A    between atoms: _15  and  _16
REMARK    8  A    between atoms: _19  and  _21
REMARK    9  A    between atoms: _21  and  _22
REMARK   10  A    between atoms: _21  and  _24
REMARK   11  A    between atoms: _24  and  _25
REMARK   12  A    between atoms: _31  and  _32
REMARK   13  A    between atoms: _37  and  _39
REMARK   14  A    between atoms: _39  and  _40
REMARK   15  A    between atoms: _39  and  _42
REMARK   16  A    between atoms: _45  and  _47
REMARK   17  A    between atoms: _47  and  _48
REMARK   18  A    between atoms: _47  and  _50
REMARK   19  A    between atoms: _50  and  _51
REMARK   20  A    between atoms: _53  and  _55
REMARK   21  A    between atoms: _55  and  _56
REMARK   22  A    between atoms: _55  and  _58
REMARK   23  A    between atoms: _58  and  _59
REMARK   24  A    between atoms: _62  and  _64
REMARK   25  A    between atoms: _64  and  _65
REMARK   26  A    between atoms: _68  and  _70
REMARK   27  A    between atoms: _70  and  _71
REMARK   28  A    between atoms: _70  and  _73
REMARK   29  A    between atoms: _76  and  _78
REMARK   30  A    between atoms: _78  and  _79
REMARK   31  A    between atoms: _78  and  _81
REMARK   32  A    between atoms: _84  and  _86
REMARK   33  A    between atoms: _86  and  _87
REMARK   34  A    between atoms: _86  and  _89
REMARK   35  A    between atoms: _89  and  _90
REMARK   36  A    between atoms: _90  and  _91
REMARK   37  A    between atoms: _94  and  _96
REMARK   38  A    between atoms: _96  and  _97
REMARK   39  A    between atoms: _96  and  _99
REMARK   40  A    between atoms: _99  and  _100
REMARK   41  A    between atoms: _105  and  _106
REMARK   42  A    between atoms: _108  and  _110
REMARK   43  A    between atoms: _110  and  _111
REMARK   44  A    between atoms: _110  and  _113
REMARK   45  A    between atoms: _113  and  _114
REMARK   46  A    between atoms: _120  and  _122
REMARK   47  A    between atoms: _122  and  _123
REMARK   48  A    between atoms: _122  and  _125
REMARK   49  A    between atoms: _125  and  _126
REMARK   50  A    between atoms: _126  and  _127
REMARK   51  A    between atoms: _127  and  _128
REMARK   52  A    between atoms: _137  and  _139
REMARK   53  A    between atoms: _139  and  _140
REMARK   54  A    between atoms: _139  and  _142
REMARK   55  A    between atoms: _142  and  _143
REMARK   56  A    between atoms: _143  and  _144
REMARK   57  A    between atoms: _149  and  _151
REMARK   58  A    between atoms: _151  and  _152
REMARK   59  A    between atoms: _151  and  _154
REMARK   60  A    between atoms: _154  and  _155
REMARK   61  A    between atoms: _155  and  _156
REMARK   62  A    between atoms: _159  and  _161
REMARK   63  A    between atoms: _161  and  _162
REMARK   64  A    between atoms: _161  and  _164
REMARK   65  A    between atoms: _164  and  _165
REMARK   66  A    between atoms: _170  and  _171
REMARK   67  A    between atoms: _173  and  _175
REMARK   68  A    between atoms: _175  and  _176
REMARK   69  A    between atoms: _178  and  _180
REMARK   70  A    between atoms: _180  and  _181
REMARK   71  A    between atoms: _180  and  _183
REMARK   72  A    between atoms: _186  and  _188
REMARK   73  A    between atoms: _188  and  _189
REMARK   74  A    between atoms: _188  and  _191
REMARK   75  A    between atoms: _191  and  _192
REMARK   76  A    between atoms: _195  and  _197
REMARK   77  A    between atoms: _197  and  _198
REMARK   78  A    between atoms: _197  and  _200
REMARK   79  A    between atoms: _200  and  _201
REMARK   80  A    between atoms: _204  and  _206
REMARK   81  A    between atoms: _206  and  _207
REMARK   82  A    between atoms: _206  and  _209
REMARK   83  A    between atoms: _211  and  _213
REMARK   84  A    between atoms: _213  and  _214
REMARK   85  A    between atoms: _213  and  _216
REMARK   86  A    between atoms: _216  and  _217
REMARK   87  A    between atoms: _220  and  _222
REMARK   88  A    between atoms: _222  and  _223
REMARK   89  A    between atoms: _222  and  _225
REMARK   90  A    between atoms: _225  and  _226
REMARK   91  A    between atoms: _226  and  _227
REMARK   92  A    between atoms: _227  and  _228
REMARK   93  A    between atoms: _237  and  _239
REMARK   94  A    between atoms: _239  and  _240
REMARK   95  A    between atoms: _239  and  _242
REMARK   96  A    between atoms: _242  and  _243
REMARK   97  A    between atoms: _249  and  _251
REMARK   98  A    between atoms: _251  and  _252
REMARK   99  A    between atoms: _251  and  _254
REMARK  100  A    between atoms: _254  and  _255
REMARK  101  A    between atoms: _255  and  _256
REMARK  102  A    between atoms: _261  and  _263
REMARK  103  A    between atoms: _263  and  _264
REMARK  104  A    between atoms: _263  and  _266
REMARK  105  A    between atoms: _266  and  _267
REMARK  106  A    between atoms: _270  and  _272
REMARK  107  A    between atoms: _272  and  _273
REMARK  108  A    between atoms: _272  and  _275
REMARK  109  A    between atoms: _275  and  _276
REMARK  110  A    between atoms: _281  and  _283
REMARK  111  A    between atoms: _283  and  _284
REMARK  112  A    between atoms: _287  and  _289
REMARK  113  A    between atoms: _289  and  _290
REMARK  114  A    between atoms: _289  and  _292
REMARK  115  A    between atoms: _292  and  _293
REMARK  116  A    between atoms: _296  and  _298
REMARK  117  A    between atoms: _298  and  _299
REMARK  118  A    between atoms: _298  and  _301
REMARK  119  A    between atoms: _301  and  _302
REMARK  120  A    between atoms: _305  and  _307
REMARK  121  A    between atoms: _307  and  _308
REMARK  122  A    between atoms: _307  and  _310
REMARK  123  A    between atoms: _310  and  _311
REMARK  124  A    between atoms: _311  and  _312
REMARK  125  A    between atoms: _312  and  _313
REMARK  126  A    between atoms: _322  and  _324
REMARK  127  A    between atoms: _324  and  _325
REMARK  128  A    between atoms: _324  and  _327
REMARK  129  A    between atoms: _327  and  _328
REMARK  130  A    between atoms: _328  and  _329
REMARK  131  A    between atoms: _329  and  _330
REMARK  132  A    between atoms: _330  and  _331
REMARK  133  A    between atoms: _335  and  _337
REMARK  134  A    between atoms: _337  and  _338
REMARK  135  A    between atoms: _337  and  _340
REMARK  136  A    between atoms: _340  and  _341
REMARK  137  A    between atoms: _344  and  _346
REMARK  138  A    between atoms: _346  and  _347
REMARK  139  A    between atoms: _350  and  _352
REMARK  140  A    between atoms: _352  and  _353
REMARK  141  A    between atoms: _352  and  _355
REMARK  142  A    between atoms: _358  and  _360
REMARK  143  A    between atoms: _360  and  _361
REMARK  144  A    between atoms: _360  and  _363
REMARK  145  A    between atoms: _363  and  _364
REMARK  146  A    between atoms: _369  and  _371
REMARK  147  A    between atoms: _371  and  _372
REMARK  148  A    between atoms: _371  and  _374
REMARK  149  A    between atoms: _374  and  _375
REMARK  150  A    between atoms: _375  and  _376
REMARK  151  A    between atoms: _378  and  _380
REMARK  152  A    between atoms: _380  and  _381
REMARK  153  A    between atoms: _380  and  _383
REMARK  154  A    between atoms: _386  and  _388
REMARK  155  A    between atoms: _388  and  _389
REMARK  156  A    between atoms: _388  and  _391
REMARK  157  A    between atoms: _391  and  _392
REMARK  158  A    between atoms: _395  and  _397
REMARK  159  A    between atoms: _397  and  _398
REMARK  160  A    between atoms: _397  and  _400
REMARK  161  A    between atoms: _400  and  _401
REMARK  162  A    between atoms: _404  and  _406
REMARK  163  A    between atoms: _406  and  _407
REMARK  164  A    between atoms: _406  and  _409
REMARK  165  A    between atoms: _412  and  _414
REMARK  166  A    between atoms: _414  and  _415
REMARK  167  A    between atoms: _418  and  _420
REMARK  168  A    between atoms: _420  and  _421
REMARK  169  A    between atoms: _424  and  _426
REMARK  170  A    between atoms: _426  and  _427
REMARK  171  A    between atoms: _426  and  _429
REMARK  172  A    between atoms: _429  and  _430
REMARK  173  A    between atoms: _433  and  _435
REMARK  174  A    between atoms: _435  and  _436
REMARK  175  A    between atoms: _435  and  _438
REMARK  176  A    between atoms: _438  and  _439
REMARK  177  A    between atoms: _445  and  _447
REMARK  178  A    between atoms: _447  and  _448
REMARK  179  A    between atoms: _447  and  _450
REMARK  180  A    between atoms: _450  and  _451
REMARK  181  A    between atoms: _455  and  _456
REMARK  182  A    between atoms: _461  and  _463
REMARK  183  A    between atoms: _463  and  _464
REMARK  184  A    between atoms: _463  and  _466
REMARK  185  A    between atoms: _466  and  _467
REMARK  186  A    between atoms: _472  and  _474
REMARK  187  A    between atoms: _474  and  _475
REMARK  188  A    between atoms: _474  and  _477
REMARK  189  A    between atoms: _477  and  _478
REMARK  190  A    between atoms: _483  and  _485
REMARK  191  A    between atoms: _485  and  _486
REMARK  192  A    between atoms: _485  and  _488
REMARK  193  A    between atoms: _491  and  _493
REMARK  194  A    between atoms: _493  and  _494
REMARK  195  A    between atoms: _493  and  _496
REMARK  196  A    between atoms: _496  and  _497
REMARK  197  A    between atoms: _497  and  _498
REMARK  198  A    between atoms: _498  and  _499
REMARK  199  A    between atoms: _499  and  _500
REMARK  200  A    between atoms: _504  and  _506
REMARK  201  A    between atoms: _506  and  _507
REMARK  202  A    between atoms: _506  and  _509
REMARK  203  A    between atoms: _509  and  _510
REMARK  204  A    between atoms: _513  and  _515
REMARK  205  A    between atoms: _515  and  _516
REMARK  206  A    between atoms: _519  and  _521
REMARK  207  A    between atoms: _521  and  _522
REMARK  208  A    between atoms: _521  and  _524
REMARK  209  A    between atoms: _527  and  _529
REMARK  210  A    between atoms: _529  and  _530
REMARK  211  A    between atoms: _529  and  _532
REMARK  212  A    between atoms: _532  and  _533
REMARK  213  A    between atoms: _536  and  _538
REMARK  214  A    between atoms: _538  and  _539
REMARK  215  A    between atoms: _538  and  _541
REMARK  216  A    between atoms: _541  and  _542
REMARK  217  A    between atoms: _548  and  _550
REMARK  218  A    between atoms: _550  and  _551
REMARK  219  A    between atoms: _550  and  _553
REMARK  220  A    between atoms: _553  and  _554
REMARK  221  A    between atoms: _557  and  _559
REMARK  222  A    between atoms: _559  and  _560
REMARK  223  A    between atoms: _559  and  _562
REMARK  224  A    between atoms: _562  and  _563
REMARK                            x       y       z     vdW  Elec       q    Type
REMARK                         _______ _______ _______ _____ _____    ______ ____
ROOT
ATOM      1  O   HOH     1      14.384  67.319  36.270  0.00  0.00    +0.000 OA
ENDROOT
TORSDOF 0
