REMARK  Name = ../refined-set-2016/4hdb/4hdb_pocket.pdb
REMARK  229 active torsions:
REMARK  status: ('A' for Active; 'I' for Inactive)
REMARK    1  A    between atoms: _1  and  _3
REMARK    2  A    between atoms: _3  and  _4
REMARK    3  A    between atoms: _3  and  _6
REMARK    4  A    between atoms: _6  and  _7
REMARK    5  A    between atoms: _7  and  _8
REMARK    6  A    between atoms: _8  and  _9
REMARK    7  A    between atoms: _18  and  _20
REMARK    8  A    between atoms: _20  and  _21
REMARK    9  A    between atoms: _20  and  _23
REMARK   10  A    between atoms: _23  and  _24
REMARK   11  A    between atoms: _27  and  _29
REMARK   12  A    between atoms: _29  and  _30
REMARK   13  A    between atoms: _29  and  _32
REMARK   14  A    between atoms: _32  and  _33
REMARK   15  A    between atoms: _36  and  _38
REMARK   16  A    between atoms: _38  and  _39
REMARK   17  A    between atoms: _38  and  _41
REMARK   18  A    between atoms: _41  and  _42
REMARK   19  A    between atoms: _45  and  _47
REMARK   20  A    between atoms: _47  and  _48
REMARK   21  A    between atoms: _47  and  _50
REMARK   22  A    between atoms: _50  and  _51
REMARK   23  A    between atoms: _54  and  _56
REMARK   24  A    between atoms: _56  and  _57
REMARK   25  A    between atoms: _59  and  _61
REMARK   26  A    between atoms: _61  and  _62
REMARK   27  A    between atoms: _65  and  _67
REMARK   28  A    between atoms: _67  and  _68
REMARK   29  A    between atoms: _67  and  _70
REMARK   30  A    between atoms: _70  and  _71
REMARK   31  A    between atoms: _74  and  _76
REMARK   32  A    between atoms: _76  and  _77
REMARK   33  A    between atoms: _76  and  _79
REMARK   34  A    between atoms: _79  and  _80
REMARK   35  A    between atoms: _85  and  _87
REMARK   36  A    between atoms: _87  and  _88
REMARK   37  A    between atoms: _87  and  _90
REMARK   38  A    between atoms: _90  and  _91
REMARK   39  A    between atoms: _94  and  _96
REMARK   40  A    between atoms: _96  and  _97
REMARK   41  A    between atoms: _96  and  _99
REMARK   42  A    between atoms: _102  and  _104
REMARK   43  A    between atoms: _104  and  _105
REMARK   44  A    between atoms: _104  and  _107
REMARK   45  A    between atoms: _107  and  _108
REMARK   46  A    between atoms: _108  and  _109
REMARK   47  A    between atoms: _109  and  _110
REMARK   48  A    between atoms: _110  and  _111
REMARK   49  A    between atoms: _115  and  _117
REMARK   50  A    between atoms: _117  and  _118
REMARK   51  A    between atoms: _117  and  _120
REMARK   52  A    between atoms: _120  and  _121
REMARK   53  A    between atoms: _121  and  _122
REMARK   54  A    between atoms: _124  and  _126
REMARK   55  A    between atoms: _126  and  _127
REMARK   56  A    between atoms: _126  and  _129
REMARK   57  A    between atoms: _129  and  _130
REMARK   58  A    between atoms: _133  and  _135
REMARK   59  A    between atoms: _135  and  _136
REMARK   60  A    between atoms: _138  and  _140
REMARK   61  A    between atoms: _140  and  _141
REMARK   62  A    between atoms: _143  and  _145
REMARK   63  A    between atoms: _145  and  _146
REMARK   64  A    between atoms: _145  and  _148
REMARK   65  A    between atoms: _148  and  _149
REMARK   66  A    between atoms: _152  and  _154
REMARK   67  A    between atoms: _154  and  _155
REMARK   68  A    between atoms: _157  and  _159
REMARK   69  A    between atoms: _159  and  _160
REMARK   70  A    between atoms: _162  and  _164
REMARK   71  A    between atoms: _164  and  _165
REMARK   72  A    between atoms: _164  and  _167
REMARK   73  A    between atoms: _167  and  _168
REMARK   74  A    between atoms: _174  and  _176
REMARK   75  A    between atoms: _176  and  _177
REMARK   76  A    between atoms: _176  and  _179
REMARK   77  A    between atoms: _179  and  _180
REMARK   78  A    between atoms: _183  and  _185
REMARK   79  A    between atoms: _185  and  _186
REMARK   80  A    between atoms: _185  and  _188
REMARK   81  A    between atoms: _191  and  _193
REMARK   82  A    between atoms: _193  and  _194
REMARK   83  A    between atoms: _193  and  _196
REMARK   84  A    between atoms: _196  and  _197
REMARK   85  A    between atoms: _201  and  _202
REMARK   86  A    between atoms: _207  and  _209
REMARK   87  A    between atoms: _209  and  _210
REMARK   88  A    between atoms: _209  and  _212
REMARK   89  A    between atoms: _212  and  _213
REMARK   90  A    between atoms: _217  and  _218
REMARK   91  A    between atoms: _223  and  _225
REMARK   92  A    between atoms: _225  and  _226
REMARK   93  A    between atoms: _225  and  _228
REMARK   94  A    between atoms: _231  and  _233
REMARK   95  A    between atoms: _233  and  _234
REMARK   96  A    between atoms: _233  and  _236
REMARK   97  A    between atoms: _236  and  _237
REMARK   98  A    between atoms: _242  and  _244
REMARK   99  A    between atoms: _244  and  _245
REMARK  100  A    between atoms: _244  and  _247
REMARK  101  A    between atoms: _247  and  _248
REMARK  102  A    between atoms: _251  and  _253
REMARK  103  A    between atoms: _253  and  _254
REMARK  104  A    between atoms: _253  and  _256
REMARK  105  A    between atoms: _256  and  _257
REMARK  106  A    between atoms: _260  and  _262
REMARK  107  A    between atoms: _262  and  _263
REMARK  108  A    between atoms: _265  and  _267
REMARK  109  A    between atoms: _267  and  _268
REMARK  110  A    between atoms: _267  and  _270
REMARK  111  A    between atoms: _270  and  _271
REMARK  112  A    between atoms: _271  and  _272
REMARK  113  A    between atoms: _272  and  _273
REMARK  114  A    between atoms: _282  and  _284
REMARK  115  A    between atoms: _284  and  _285
REMARK  116  A    between atoms: _284  and  _287
REMARK  117  A    between atoms: _287  and  _288
REMARK  118  A    between atoms: _293  and  _295
REMARK  119  A    between atoms: _295  and  _296
REMARK  120  A    between atoms: _295  and  _298
REMARK  121  A    between atoms: _298  and  _299
REMARK  122  A    between atoms: _299  and  _300
REMARK  123  A    between atoms: _300  and  _301
REMARK  124  A    between atoms: _310  and  _312
REMARK  125  A    between atoms: _312  and  _313
REMARK  126  A    between atoms: _312  and  _315
REMARK  127  A    between atoms: _315  and  _316
REMARK  128  A    between atoms: _319  and  _321
REMARK  129  A    between atoms: _321  and  _322
REMARK  130  A    between atoms: _321  and  _324
REMARK  131  A    between atoms: _324  and  _325
REMARK  132  A    between atoms: _328  and  _330
REMARK  133  A    between atoms: _330  and  _331
REMARK  134  A    between atoms: _330  and  _333
REMARK  135  A    between atoms: _333  and  _334
REMARK  136  A    between atoms: _337  and  _339
REMARK  137  A    between atoms: _339  and  _340
REMARK  138  A    between atoms: _339  and  _342
REMARK  139  A    between atoms: _342  and  _343
REMARK  140  A    between atoms: _346  and  _348
REMARK  141  A    between atoms: _348  and  _349
REMARK  142  A    between atoms: _351  and  _353
REMARK  143  A    between atoms: _353  and  _354
REMARK  144  A    between atoms: _357  and  _359
REMARK  145  A    between atoms: _359  and  _360
REMARK  146  A    between atoms: _359  and  _362
REMARK  147  A    between atoms: _362  and  _363
REMARK  148  A    between atoms: _366  and  _368
REMARK  149  A    between atoms: _368  and  _369
REMARK  150  A    between atoms: _368  and  _371
REMARK  151  A    between atoms: _371  and  _372
REMARK  152  A    between atoms: _377  and  _379
REMARK  153  A    between atoms: _379  and  _380
REMARK  154  A    between atoms: _379  and  _382
REMARK  155  A    between atoms: _382  and  _383
REMARK  156  A    between atoms: _386  and  _388
REMARK  157  A    between atoms: _388  and  _389
REMARK  158  A    between atoms: _388  and  _391
REMARK  159  A    between atoms: _394  and  _396
REMARK  160  A    between atoms: _396  and  _397
REMARK  161  A    between atoms: _396  and  _399
REMARK  162  A    between atoms: _399  and  _400
REMARK  163  A    between atoms: _400  and  _401
REMARK  164  A    between atoms: _401  and  _402
REMARK  165  A    between atoms: _402  and  _403
REMARK  166  A    between atoms: _407  and  _409
REMARK  167  A    between atoms: _409  and  _410
REMARK  168  A    between atoms: _409  and  _412
REMARK  169  A    between atoms: _412  and  _413
REMARK  170  A    between atoms: _413  and  _414
REMARK  171  A    between atoms: _416  and  _418
REMARK  172  A    between atoms: _418  and  _419
REMARK  173  A    between atoms: _418  and  _421
REMARK  174  A    between atoms: _421  and  _422
REMARK  175  A    between atoms: _425  and  _427
REMARK  176  A    between atoms: _427  and  _428
REMARK  177  A    between atoms: _430  and  _432
REMARK  178  A    between atoms: _432  and  _433
REMARK  179  A    between atoms: _435  and  _437
REMARK  180  A    between atoms: _437  and  _438
REMARK  181  A    between atoms: _437  and  _440
REMARK  182  A    between atoms: _440  and  _441
REMARK  183  A    between atoms: _444  and  _446
REMARK  184  A    between atoms: _446  and  _447
REMARK  185  A    between atoms: _449  and  _451
REMARK  186  A    between atoms: _451  and  _452
REMARK  187  A    between atoms: _454  and  _456
REMARK  188  A    between atoms: _456  and  _457
REMARK  189  A    between atoms: _456  and  _459
REMARK  190  A    between atoms: _459  and  _460
REMARK  191  A    between atoms: _466  and  _468
REMARK  192  A    between atoms: _468  and  _469
REMARK  193  A    between atoms: _468  and  _471
REMARK  194  A    between atoms: _471  and  _472
REMARK  195  A    between atoms: _475  and  _477
REMARK  196  A    between atoms: _477  and  _478
REMARK  197  A    between atoms: _477  and  _480
REMARK  198  A    between atoms: _483  and  _485
REMARK  199  A    between atoms: _485  and  _486
REMARK  200  A    between atoms: _485  and  _488
REMARK  201  A    between atoms: _488  and  _489
REMARK  202  A    between atoms: _492  and  _494
REMARK  203  A    between atoms: _494  and  _495
REMARK  204  A    between atoms: _494  and  _497
REMARK  205  A    between atoms: _497  and  _498
REMARK  206  A    between atoms: _502  and  _503
REMARK  207  A    between atoms: _508  and  _510
REMARK  208  A    between atoms: _510  and  _511
REMARK  209  A    between atoms: _510  and  _513
REMARK  210  A    between atoms: _516  and  _518
REMARK  211  A    between atoms: _518  and  _519
REMARK  212  A    between atoms: _518  and  _521
REMARK  213  A    between atoms: _521  and  _522
REMARK  214  A    between atoms: _527  and  _529
REMARK  215  A    between atoms: _529  and  _530
REMARK  216  A    between atoms: _529  and  _532
REMARK  217  A    between atoms: _532  and  _533
REMARK  218  A    between atoms: _536  and  _538
REMARK  219  A    between atoms: _538  and  _539
REMARK  220  A    between atoms: _541  and  _543
REMARK  221  A    between atoms: _543  and  _544
REMARK  222  A    between atoms: _543  and  _546
REMARK  223  A    between atoms: _546  and  _547
REMARK  224  A    between atoms: _547  and  _548
REMARK  225  A    between atoms: _548  and  _549
REMARK  226  A    between atoms: _558  and  _560
REMARK  227  A    between atoms: _560  and  _561
REMARK  228  A    between atoms: _560  and  _563
REMARK  229  A    between atoms: _563  and  _564
REMARK                            x       y       z     vdW  Elec       q    Type
REMARK                         _______ _______ _______ _____ _____    ______ ____
ROOT
ATOM      1  NE  ARG A   1       6.119  20.285  15.198  0.00  0.00    -0.265 N 
ATOM      2  HE  ARG A   1       6.401  20.215  16.197  0.00  0.00    +0.259 HD
ATOM      3  CZ  ARG A   1       6.271  19.212  14.434  0.00  0.00    +0.342 C 
ATOM      4  NH2 ARG A   1       6.775  18.120  14.988  0.00  0.00    -0.292 N 
ATOM      5 HH21 ARG A   1       7.038  18.121  15.994  0.00  0.00    +0.255 HD
ATOM      6 HH22 ARG A   1       6.907  17.261  14.417  0.00  0.00    +0.255 HD
ATOM      7  NH1 ARG A   1       5.934  19.199  13.124  0.00  0.00    -0.292 N 
ATOM      8 HH11 ARG A   1       5.539  20.053  12.680  0.00  0.00    +0.255 HD
ATOM      9 HH12 ARG A   1       6.070  18.335  12.561  0.00  0.00    +0.255 HD
ENDROOT
BRANCH   1  10
ATOM     10  CD  ARG A   1       5.583  21.553  14.729  0.00  0.00    +0.174 C 
BRANCH  10  11
ATOM     11  CG  ARG A   1       5.103  22.383  15.891  0.00  0.00    +0.045 C 
BRANCH  11  12
ATOM     12  CB  ARG A   1       4.544  23.742  15.441  0.00  0.00    +0.029 C 
BRANCH  12  13
ATOM     13  CA  ARG A   1       3.990  24.544  16.620  0.00  0.00    +0.133 C 
BRANCH  13  14
ATOM     14  N   ARG A   1       2.789  23.892  17.105  0.00  0.00    -0.239 NA
ATOM     15  H   ARG A   1       2.468  23.011  16.656  0.00  0.00    +0.142 HD
ENDBRANCH  13  14
BRANCH  13  16
ATOM     16  C   ARG A   1       3.681  25.968  16.185  0.00  0.00    +0.224 C 
ATOM     17  O   ARG A   1       2.707  26.140  15.471  0.00  0.00    -0.287 OA
ENDBRANCH  13  16
ENDBRANCH  12  13
ENDBRANCH  11  12
ENDBRANCH  10  11
ENDBRANCH   1  10
TORSDOF 6
REMARK  Name = ../refined-set-2016/4hdb/4hdb_pocket.pdb
REMARK  229 active torsions:
REMARK  status: ('A' for Active; 'I' for Inactive)
REMARK    1  A    between atoms: _1  and  _3
REMARK    2  A    between atoms: _3  and  _4
REMARK    3  A    between atoms: _3  and  _6
REMARK    4  A    between atoms: _6  and  _7
REMARK    5  A    between atoms: _7  and  _8
REMARK    6  A    between atoms: _8  and  _9
REMARK    7  A    between atoms: _18  and  _20
REMARK    8  A    between atoms: _20  and  _21
REMARK    9  A    between atoms: _20  and  _23
REMARK   10  A    between atoms: _23  and  _24
REMARK   11  A    between atoms: _27  and  _29
REMARK   12  A    between atoms: _29  and  _30
REMARK   13  A    between atoms: _29  and  _32
REMARK   14  A    between atoms: _32  and  _33
REMARK   15  A    between atoms: _36  and  _38
REMARK   16  A    between atoms: _38  and  _39
REMARK   17  A    between atoms: _38  and  _41
REMARK   18  A    between atoms: _41  and  _42
REMARK   19  A    between atoms: _45  and  _47
REMARK   20  A    between atoms: _47  and  _48
REMARK   21  A    between atoms: _47  and  _50
REMARK   22  A    between atoms: _50  and  _51
REMARK   23  A    between atoms: _54  and  _56
REMARK   24  A    between atoms: _56  and  _57
REMARK   25  A    between atoms: _59  and  _61
REMARK   26  A    between atoms: _61  and  _62
REMARK   27  A    between atoms: _65  and  _67
REMARK   28  A    between atoms: _67  and  _68
REMARK   29  A    between atoms: _67  and  _70
REMARK   30  A    between atoms: _70  and  _71
REMARK   31  A    between atoms: _74  and  _76
REMARK   32  A    between atoms: _76  and  _77
REMARK   33  A    between atoms: _76  and  _79
REMARK   34  A    between atoms: _79  and  _80
REMARK   35  A    between atoms: _85  and  _87
REMARK   36  A    between atoms: _87  and  _88
REMARK   37  A    between atoms: _87  and  _90
REMARK   38  A    between atoms: _90  and  _91
REMARK   39  A    between atoms: _94  and  _96
REMARK   40  A    between atoms: _96  and  _97
REMARK   41  A    between atoms: _96  and  _99
REMARK   42  A    between atoms: _102  and  _104
REMARK   43  A    between atoms: _104  and  _105
REMARK   44  A    between atoms: _104  and  _107
REMARK   45  A    between atoms: _107  and  _108
REMARK   46  A    between atoms: _108  and  _109
REMARK   47  A    between atoms: _109  and  _110
REMARK   48  A    between atoms: _110  and  _111
REMARK   49  A    between atoms: _115  and  _117
REMARK   50  A    between atoms: _117  and  _118
REMARK   51  A    between atoms: _117  and  _120
REMARK   52  A    between atoms: _120  and  _121
REMARK   53  A    between atoms: _121  and  _122
REMARK   54  A    between atoms: _124  and  _126
REMARK   55  A    between atoms: _126  and  _127
REMARK   56  A    between atoms: _126  and  _129
REMARK   57  A    between atoms: _129  and  _130
REMARK   58  A    between atoms: _133  and  _135
REMARK   59  A    between atoms: _135  and  _136
REMARK   60  A    between atoms: _138  and  _140
REMARK   61  A    between atoms: _140  and  _141
REMARK   62  A    between atoms: _143  and  _145
REMARK   63  A    between atoms: _145  and  _146
REMARK   64  A    between atoms: _145  and  _148
REMARK   65  A    between atoms: _148  and  _149
REMARK   66  A    between atoms: _152  and  _154
REMARK   67  A    between atoms: _154  and  _155
REMARK   68  A    between atoms: _157  and  _159
REMARK   69  A    between atoms: _159  and  _160
REMARK   70  A    between atoms: _162  and  _164
REMARK   71  A    between atoms: _164  and  _165
REMARK   72  A    between atoms: _164  and  _167
REMARK   73  A    between atoms: _167  and  _168
REMARK   74  A    between atoms: _174  and  _176
REMARK   75  A    between atoms: _176  and  _177
REMARK   76  A    between atoms: _176  and  _179
REMARK   77  A    between atoms: _179  and  _180
REMARK   78  A    between atoms: _183  and  _185
REMARK   79  A    between atoms: _185  and  _186
REMARK   80  A    between atoms: _185  and  _188
REMARK   81  A    between atoms: _191  and  _193
REMARK   82  A    between atoms: _193  and  _194
REMARK   83  A    between atoms: _193  and  _196
REMARK   84  A    between atoms: _196  and  _197
REMARK   85  A    between atoms: _201  and  _202
REMARK   86  A    between atoms: _207  and  _209
REMARK   87  A    between atoms: _209  and  _210
REMARK   88  A    between atoms: _209  and  _212
REMARK   89  A    between atoms: _212  and  _213
REMARK   90  A    between atoms: _217  and  _218
REMARK   91  A    between atoms: _223  and  _225
REMARK   92  A    between atoms: _225  and  _226
REMARK   93  A    between atoms: _225  and  _228
REMARK   94  A    between atoms: _231  and  _233
REMARK   95  A    between atoms: _233  and  _234
REMARK   96  A    between atoms: _233  and  _236
REMARK   97  A    between atoms: _236  and  _237
REMARK   98  A    between atoms: _242  and  _244
REMARK   99  A    between atoms: _244  and  _245
REMARK  100  A    between atoms: _244  and  _247
REMARK  101  A    between atoms: _247  and  _248
REMARK  102  A    between atoms: _251  and  _253
REMARK  103  A    between atoms: _253  and  _254
REMARK  104  A    between atoms: _253  and  _256
REMARK  105  A    between atoms: _256  and  _257
REMARK  106  A    between atoms: _260  and  _262
REMARK  107  A    between atoms: _262  and  _263
REMARK  108  A    between atoms: _265  and  _267
REMARK  109  A    between atoms: _267  and  _268
REMARK  110  A    between atoms: _267  and  _270
REMARK  111  A    between atoms: _270  and  _271
REMARK  112  A    between atoms: _271  and  _272
REMARK  113  A    between atoms: _272  and  _273
REMARK  114  A    between atoms: _282  and  _284
REMARK  115  A    between atoms: _284  and  _285
REMARK  116  A    between atoms: _284  and  _287
REMARK  117  A    between atoms: _287  and  _288
REMARK  118  A    between atoms: _293  and  _295
REMARK  119  A    between atoms: _295  and  _296
REMARK  120  A    between atoms: _295  and  _298
REMARK  121  A    between atoms: _298  and  _299
REMARK  122  A    between atoms: _299  and  _300
REMARK  123  A    between atoms: _300  and  _301
REMARK  124  A    between atoms: _310  and  _312
REMARK  125  A    between atoms: _312  and  _313
REMARK  126  A    between atoms: _312  and  _315
REMARK  127  A    between atoms: _315  and  _316
REMARK  128  A    between atoms: _319  and  _321
REMARK  129  A    between atoms: _321  and  _322
REMARK  130  A    between atoms: _321  and  _324
REMARK  131  A    between atoms: _324  and  _325
REMARK  132  A    between atoms: _328  and  _330
REMARK  133  A    between atoms: _330  and  _331
REMARK  134  A    between atoms: _330  and  _333
REMARK  135  A    between atoms: _333  and  _334
REMARK  136  A    between atoms: _337  and  _339
REMARK  137  A    between atoms: _339  and  _340
REMARK  138  A    between atoms: _339  and  _342
REMARK  139  A    between atoms: _342  and  _343
REMARK  140  A    between atoms: _346  and  _348
REMARK  141  A    between atoms: _348  and  _349
REMARK  142  A    between atoms: _351  and  _353
REMARK  143  A    between atoms: _353  and  _354
REMARK  144  A    between atoms: _357  and  _359
REMARK  145  A    between atoms: _359  and  _360
REMARK  146  A    between atoms: _359  and  _362
REMARK  147  A    between atoms: _362  and  _363
REMARK  148  A    between atoms: _366  and  _368
REMARK  149  A    between atoms: _368  and  _369
REMARK  150  A    between atoms: _368  and  _371
REMARK  151  A    between atoms: _371  and  _372
REMARK  152  A    between atoms: _377  and  _379
REMARK  153  A    between atoms: _379  and  _380
REMARK  154  A    between atoms: _379  and  _382
REMARK  155  A    between atoms: _382  and  _383
REMARK  156  A    between atoms: _386  and  _388
REMARK  157  A    between atoms: _388  and  _389
REMARK  158  A    between atoms: _388  and  _391
REMARK  159  A    between atoms: _394  and  _396
REMARK  160  A    between atoms: _396  and  _397
REMARK  161  A    between atoms: _396  and  _399
REMARK  162  A    between atoms: _399  and  _400
REMARK  163  A    between atoms: _400  and  _401
REMARK  164  A    between atoms: _401  and  _402
REMARK  165  A    between atoms: _402  and  _403
REMARK  166  A    between atoms: _407  and  _409
REMARK  167  A    between atoms: _409  and  _410
REMARK  168  A    between atoms: _409  and  _412
REMARK  169  A    between atoms: _412  and  _413
REMARK  170  A    between atoms: _413  and  _414
REMARK  171  A    between atoms: _416  and  _418
REMARK  172  A    between atoms: _418  and  _419
REMARK  173  A    between atoms: _418  and  _421
REMARK  174  A    between atoms: _421  and  _422
REMARK  175  A    between atoms: _425  and  _427
REMARK  176  A    between atoms: _427  and  _428
REMARK  177  A    between atoms: _430  and  _432
REMARK  178  A    between atoms: _432  and  _433
REMARK  179  A    between atoms: _435  and  _437
REMARK  180  A    between atoms: _437  and  _438
REMARK  181  A    between atoms: _437  and  _440
REMARK  182  A    between atoms: _440  and  _441
REMARK  183  A    between atoms: _444  and  _446
REMARK  184  A    between atoms: _446  and  _447
REMARK  185  A    between atoms: _449  and  _451
REMARK  186  A    between atoms: _451  and  _452
REMARK  187  A    between atoms: _454  and  _456
REMARK  188  A    between atoms: _456  and  _457
REMARK  189  A    between atoms: _456  and  _459
REMARK  190  A    between atoms: _459  and  _460
REMARK  191  A    between atoms: _466  and  _468
REMARK  192  A    between atoms: _468  and  _469
REMARK  193  A    between atoms: _468  and  _471
REMARK  194  A    between atoms: _471  and  _472
REMARK  195  A    between atoms: _475  and  _477
REMARK  196  A    between atoms: _477  and  _478
REMARK  197  A    between atoms: _477  and  _480
REMARK  198  A    between atoms: _483  and  _485
REMARK  199  A    between atoms: _485  and  _486
REMARK  200  A    between atoms: _485  and  _488
REMARK  201  A    between atoms: _488  and  _489
REMARK  202  A    between atoms: _492  and  _494
REMARK  203  A    between atoms: _494  and  _495
REMARK  204  A    between atoms: _494  and  _497
REMARK  205  A    between atoms: _497  and  _498
REMARK  206  A    between atoms: _502  and  _503
REMARK  207  A    between atoms: _508  and  _510
REMARK  208  A    between atoms: _510  and  _511
REMARK  209  A    between atoms: _510  and  _513
REMARK  210  A    between atoms: _516  and  _518
REMARK  211  A    between atoms: _518  and  _519
REMARK  212  A    between atoms: _518  and  _521
REMARK  213  A    between atoms: _521  and  _522
REMARK  214  A    between atoms: _527  and  _529
REMARK  215  A    between atoms: _529  and  _530
REMARK  216  A    between atoms: _529  and  _532
REMARK  217  A    between atoms: _532  and  _533
REMARK  218  A    between atoms: _536  and  _538
REMARK  219  A    between atoms: _538  and  _539
REMARK  220  A    between atoms: _541  and  _543
REMARK  221  A    between atoms: _543  and  _544
REMARK  222  A    between atoms: _543  and  _546
REMARK  223  A    between atoms: _546  and  _547
REMARK  224  A    between atoms: _547  and  _548
REMARK  225  A    between atoms: _548  and  _549
REMARK  226  A    between atoms: _558  and  _560
REMARK  227  A    between atoms: _560  and  _561
REMARK  228  A    between atoms: _560  and  _563
REMARK  229  A    between atoms: _563  and  _564
REMARK                            x       y       z     vdW  Elec       q    Type
REMARK                         _______ _______ _______ _____ _____    ______ ____
ROOT
ATOM      1  C   GLY A   5      16.958  28.187  19.771  0.00  0.00    +0.243 C 
ATOM      2  O   GLY A   5      18.041  27.583  19.864  0.00  0.00    -0.273 OA
ATOM      3  N   ALA A   6      16.706  28.920  18.679  0.00  0.00    -0.297 N 
ATOM      4  H   ALA A   6      15.795  29.418  18.624  0.00  0.00    +0.150 HD
ENDROOT
BRANCH   3   5
ATOM      5  CA  ALA A   6      17.630  29.061  17.567  0.00  0.00    +0.149 C 
ATOM      6  CB  ALA A   6      16.875  28.943  16.246  0.00  0.00    +0.031 C 
BRANCH   5   7
ATOM      7  C   ALA A   6      18.327  30.407  17.591  0.00  0.00    +0.241 C 
ATOM      8  N   ASP A   7      19.664  30.416  17.634  0.00  0.00    -0.297 N 
ATOM      9  H   ASP A   7      20.203  29.531  17.720  0.00  0.00    +0.150 HD
ATOM     10  O   ALA A   6      17.608  31.412  17.558  0.00  0.00    -0.273 OA
BRANCH   8  11
ATOM     11  CA  ASP A   7      20.342  31.703  17.557  0.00  0.00    +0.160 C 
BRANCH  11  12
ATOM     12  C   ASP A   7      20.140  32.357  16.185  0.00  0.00    +0.241 C 
ATOM     13  O   ASP A   7      20.031  33.595  16.112  0.00  0.00    -0.273 OA
ATOM     14  N   ASN A   8      20.148  31.541  15.131  0.00  0.00    -0.297 N 
ATOM     15  H   ASN A   8      20.178  30.514  15.294  0.00  0.00    +0.150 HD
BRANCH  14  16
ATOM     16  CA  ASN A   8      20.116  32.027  13.771  0.00  0.00    +0.158 C 
BRANCH  16  17
ATOM     17  C   ASN A   8      18.862  31.510  13.058  0.00  0.00    +0.241 C 
ATOM     18  O   ASN A   8      18.224  30.545  13.447  0.00  0.00    -0.273 OA
ATOM     19  N   THR A   9      18.539  32.177  11.968  0.00  0.00    -0.295 N 
ATOM     20  H   THR A   9      19.100  33.028  11.762  0.00  0.00    +0.150 HD
BRANCH  19  21
ATOM     21  CA  THR A   9      17.489  31.853  11.027  0.00  0.00    +0.176 C 
BRANCH  21  22
ATOM     22  C   THR A   9      18.053  30.882   9.992  0.00  0.00    +0.243 C 
ATOM     23  N   VAL A  10      17.393  29.746   9.778  0.00  0.00    -0.298 N 
ATOM     24  H   VAL A  10      16.483  29.587  10.255  0.00  0.00    +0.150 HD
ATOM     25  O   THR A   9      19.105  31.205   9.446  0.00  0.00    -0.273 OA
BRANCH  23  26
ATOM     26  CA  VAL A  10      17.921  28.722   8.889  0.00  0.00    +0.137 C 
BRANCH  26  27
ATOM     27  CB  VAL A  10      18.436  27.487   9.643  0.00  0.00    +0.026 C 
ATOM     28  CG2 VAL A  10      19.269  27.907  10.856  0.00  0.00    +0.002 C 
ATOM     29  CG1 VAL A  10      19.235  26.591   8.682  0.00  0.00    +0.002 C 
ENDBRANCH  26  27
BRANCH  26  30
ATOM     30  C   VAL A  10      16.778  28.306   7.973  0.00  0.00    +0.227 C 
ATOM     31  O   VAL A  10      15.713  27.885   8.468  0.00  0.00    -0.286 OA
ENDBRANCH  26  30
ENDBRANCH  23  26
ENDBRANCH  21  22
BRANCH  21  32
ATOM     32  CB  THR A   9      16.961  33.155  10.391  0.00  0.00    +0.137 C 
ATOM     33  CG2 THR A   9      15.955  32.906   9.282  0.00  0.00    +0.034 C 
BRANCH  32  34
ATOM     34  OG1 THR A   9      16.325  33.909  11.436  0.00  0.00    -0.382 OA
ATOM     35  HG1 THR A   9      16.986  34.110  12.145  0.00  0.00    +0.210 HD
ENDBRANCH  32  34
ENDBRANCH  21  32
ENDBRANCH  19  21
ENDBRANCH  16  17
BRANCH  16  36
ATOM     36  CB  ASN A   8      21.319  31.569  12.948  0.00  0.00    +0.114 C 
BRANCH  36  37
ATOM     37  CG  ASN A   8      22.567  32.408  13.071  0.00  0.00    +0.222 C 
ATOM     38  ND2 ASN A   8      23.513  31.899  13.858  0.00  0.00    -0.329 N 
ATOM     39 HD21 ASN A   8      23.347  31.001  14.356  0.00  0.00    +0.145 HD
ATOM     40 HD22 ASN A   8      24.417  32.399  13.974  0.00  0.00    +0.145 HD
ATOM     41  OD1 ASN A   8      22.720  33.483  12.452  0.00  0.00    -0.275 OA
ENDBRANCH  36  37
ENDBRANCH  16  36
ENDBRANCH  14  16
ENDBRANCH  11  12
BRANCH  11  42
ATOM     42  CB  ASP A   7      21.852  31.543  17.750  0.00  0.00    +0.143 C 
BRANCH  42  43
ATOM     43  CG  ASP A   7      22.303  30.961  19.077  0.00  0.00    +0.367 C 
ATOM     44  OD2 ASP A   7      21.569  31.014  20.087  0.00  0.00    -0.246 OA
ATOM     45  OD1 ASP A   7      23.448  30.436  19.124  0.00  0.00    -0.246 OA
ENDBRANCH  42  43
ENDBRANCH  11  42
ENDBRANCH   8  11
ENDBRANCH   5   7
ENDBRANCH   3   5
BRANCH   1  46
ATOM     46  CA  GLY A   5      15.903  28.112  20.864  0.00  0.00    +0.176 C 
BRANCH  46  49
ATOM     47  C   THR A   4      14.664  30.204  20.834  0.00  0.00    +0.243 C 
ATOM     48  O   THR A   4      15.625  30.805  21.387  0.00  0.00    -0.273 OA
ATOM     49  N   GLY A   5      14.694  28.900  20.559  0.00  0.00    -0.295 N 
ATOM     50  H   GLY A   5      13.866  28.439  20.130  0.00  0.00    +0.150 HD
BRANCH  47  51
ATOM     51  CA  THR A   4      13.402  30.982  20.449  0.00  0.00    +0.176 C 
BRANCH  51  53
ATOM     52  C   ASP A   3      13.036  30.119  18.235  0.00  0.00    +0.241 C 
ATOM     53  N   THR A   4      12.578  30.261  19.490  0.00  0.00    -0.295 N 
ATOM     54  H   THR A   4      11.658  29.866  19.769  0.00  0.00    +0.150 HD
ATOM     55  O   ASP A   3      14.135  30.519  17.856  0.00  0.00    -0.273 OA
BRANCH  52  56
ATOM     56  CA  ASP A   3      12.085  29.402  17.284  0.00  0.00    +0.160 C 
BRANCH  56  59
ATOM     57  C   LEU A   2       9.943  30.201  16.465  0.00  0.00    +0.241 C 
ATOM     58  O   LEU A   2       9.298  29.533  17.294  0.00  0.00    -0.273 OA
ATOM     59  N   ASP A   3      11.285  30.319  16.456  0.00  0.00    -0.297 N 
ATOM     60  H   ASP A   3      11.748  31.046  15.874  0.00  0.00    +0.150 HD
BRANCH  57  61
ATOM     61  CA  LEU A   2       9.210  30.901  15.328  0.00  0.00    +0.149 C 
BRANCH  61  63
ATOM     62  C   LEU A   1       9.388  29.221  13.593  0.00  0.00    +0.238 C 
ATOM     63  N   LEU A   2       8.641  29.856  14.492  0.00  0.00    -0.297 N 
ATOM     64  H   LEU A   2       7.638  29.602  14.598  0.00  0.00    +0.150 HD
ATOM     65  O   LEU A   1      10.544  29.558  13.325  0.00  0.00    -0.274 OA
BRANCH  62  66
ATOM     66  CA  LEU A   1       8.794  28.030  12.854  0.00  0.00    +0.145 C 
BRANCH  66  67
ATOM     67  N   LEU A   1       8.968  28.176  11.420  0.00  0.00    -0.238 NA
ATOM     68  H   LEU A   1       9.845  27.801  11.006  0.00  0.00    +0.142 HD
ENDBRANCH  66  67
BRANCH  66  69
ATOM     69  CB  LEU A   1       9.494  26.720  13.209  0.00  0.00    +0.026 C 
BRANCH  69  70
ATOM     70  CG  LEU A   1       9.289  26.134  14.589  0.00  0.00    +0.002 C 
ATOM     71  CD2 LEU A   1       7.852  25.764  14.837  0.00  0.00    +0.000 C 
ATOM     72  CD1 LEU A   1      10.209  24.918  14.747  0.00  0.00    +0.000 C 
ENDBRANCH  69  70
ENDBRANCH  66  69
ENDBRANCH  62  66
ENDBRANCH  61  63
BRANCH  61  73
ATOM     73  CB  LEU A   2       8.111  31.812  15.853  0.00  0.00    +0.029 C 
BRANCH  73  74
ATOM     74  CG  LEU A   2       7.274  32.525  14.795  0.00  0.00    +0.002 C 
ATOM     75  CD2 LEU A   2       6.211  33.368  15.491  0.00  0.00    +0.000 C 
ATOM     76  CD1 LEU A   2       8.177  33.354  13.895  0.00  0.00    +0.000 C 
ENDBRANCH  73  74
ENDBRANCH  61  73
ENDBRANCH  57  61
ENDBRANCH  56  59
BRANCH  56  77
ATOM     77  CB  ASP A   3      12.861  28.473  16.355  0.00  0.00    +0.143 C 
BRANCH  77  78
ATOM     78  CG  ASP A   3      13.593  27.378  17.103  0.00  0.00    +0.367 C 
ATOM     79  OD2 ASP A   3      13.648  27.374  18.349  0.00  0.00    -0.246 OA
ATOM     80  OD1 ASP A   3      14.140  26.461  16.416  0.00  0.00    -0.246 OA
ENDBRANCH  77  78
ENDBRANCH  56  77
ENDBRANCH  52  56
ENDBRANCH  51  53
BRANCH  51  81
ATOM     81  CB  THR A   4      12.621  31.296  21.736  0.00  0.00    +0.137 C 
ATOM     82  CG2 THR A   4      11.399  32.154  21.404  0.00  0.00    +0.034 C 
BRANCH  81  83
ATOM     83  OG1 THR A   4      12.175  30.047  22.294  0.00  0.00    -0.382 OA
ATOM     84  HG1 THR A   4      12.960  29.479  22.497  0.00  0.00    +0.210 HD
ENDBRANCH  81  83
ENDBRANCH  51  81
ENDBRANCH  47  51
ENDBRANCH  46  49
ENDBRANCH   1  46
TORSDOF 35
REMARK  Name = ../refined-set-2016/4hdb/4hdb_pocket.pdb
REMARK  229 active torsions:
REMARK  status: ('A' for Active; 'I' for Inactive)
REMARK    1  A    between atoms: _1  and  _3
REMARK    2  A    between atoms: _3  and  _4
REMARK    3  A    between atoms: _3  and  _6
REMARK    4  A    between atoms: _6  and  _7
REMARK    5  A    between atoms: _7  and  _8
REMARK    6  A    between atoms: _8  and  _9
REMARK    7  A    between atoms: _18  and  _20
REMARK    8  A    between atoms: _20  and  _21
REMARK    9  A    between atoms: _20  and  _23
REMARK   10  A    between atoms: _23  and  _24
REMARK   11  A    between atoms: _27  and  _29
REMARK   12  A    between atoms: _29  and  _30
REMARK   13  A    between atoms: _29  and  _32
REMARK   14  A    between atoms: _32  and  _33
REMARK   15  A    between atoms: _36  and  _38
REMARK   16  A    between atoms: _38  and  _39
REMARK   17  A    between atoms: _38  and  _41
REMARK   18  A    between atoms: _41  and  _42
REMARK   19  A    between atoms: _45  and  _47
REMARK   20  A    between atoms: _47  and  _48
REMARK   21  A    between atoms: _47  and  _50
REMARK   22  A    between atoms: _50  and  _51
REMARK   23  A    between atoms: _54  and  _56
REMARK   24  A    between atoms: _56  and  _57
REMARK   25  A    between atoms: _59  and  _61
REMARK   26  A    between atoms: _61  and  _62
REMARK   27  A    between atoms: _65  and  _67
REMARK   28  A    between atoms: _67  and  _68
REMARK   29  A    between atoms: _67  and  _70
REMARK   30  A    between atoms: _70  and  _71
REMARK   31  A    between atoms: _74  and  _76
REMARK   32  A    between atoms: _76  and  _77
REMARK   33  A    between atoms: _76  and  _79
REMARK   34  A    between atoms: _79  and  _80
REMARK   35  A    between atoms: _85  and  _87
REMARK   36  A    between atoms: _87  and  _88
REMARK   37  A    between atoms: _87  and  _90
REMARK   38  A    between atoms: _90  and  _91
REMARK   39  A    between atoms: _94  and  _96
REMARK   40  A    between atoms: _96  and  _97
REMARK   41  A    between atoms: _96  and  _99
REMARK   42  A    between atoms: _102  and  _104
REMARK   43  A    between atoms: _104  and  _105
REMARK   44  A    between atoms: _104  and  _107
REMARK   45  A    between atoms: _107  and  _108
REMARK   46  A    between atoms: _108  and  _109
REMARK   47  A    between atoms: _109  and  _110
REMARK   48  A    between atoms: _110  and  _111
REMARK   49  A    between atoms: _115  and  _117
REMARK   50  A    between atoms: _117  and  _118
REMARK   51  A    between atoms: _117  and  _120
REMARK   52  A    between atoms: _120  and  _121
REMARK   53  A    between atoms: _121  and  _122
REMARK   54  A    between atoms: _124  and  _126
REMARK   55  A    between atoms: _126  and  _127
REMARK   56  A    between atoms: _126  and  _129
REMARK   57  A    between atoms: _129  and  _130
REMARK   58  A    between atoms: _133  and  _135
REMARK   59  A    between atoms: _135  and  _136
REMARK   60  A    between atoms: _138  and  _140
REMARK   61  A    between atoms: _140  and  _141
REMARK   62  A    between atoms: _143  and  _145
REMARK   63  A    between atoms: _145  and  _146
REMARK   64  A    between atoms: _145  and  _148
REMARK   65  A    between atoms: _148  and  _149
REMARK   66  A    between atoms: _152  and  _154
REMARK   67  A    between atoms: _154  and  _155
REMARK   68  A    between atoms: _157  and  _159
REMARK   69  A    between atoms: _159  and  _160
REMARK   70  A    between atoms: _162  and  _164
REMARK   71  A    between atoms: _164  and  _165
REMARK   72  A    between atoms: _164  and  _167
REMARK   73  A    between atoms: _167  and  _168
REMARK   74  A    between atoms: _174  and  _176
REMARK   75  A    between atoms: _176  and  _177
REMARK   76  A    between atoms: _176  and  _179
REMARK   77  A    between atoms: _179  and  _180
REMARK   78  A    between atoms: _183  and  _185
REMARK   79  A    between atoms: _185  and  _186
REMARK   80  A    between atoms: _185  and  _188
REMARK   81  A    between atoms: _191  and  _193
REMARK   82  A    between atoms: _193  and  _194
REMARK   83  A    between atoms: _193  and  _196
REMARK   84  A    between atoms: _196  and  _197
REMARK   85  A    between atoms: _201  and  _202
REMARK   86  A    between atoms: _207  and  _209
REMARK   87  A    between atoms: _209  and  _210
REMARK   88  A    between atoms: _209  and  _212
REMARK   89  A    between atoms: _212  and  _213
REMARK   90  A    between atoms: _217  and  _218
REMARK   91  A    between atoms: _223  and  _225
REMARK   92  A    between atoms: _225  and  _226
REMARK   93  A    between atoms: _225  and  _228
REMARK   94  A    between atoms: _231  and  _233
REMARK   95  A    between atoms: _233  and  _234
REMARK   96  A    between atoms: _233  and  _236
REMARK   97  A    between atoms: _236  and  _237
REMARK   98  A    between atoms: _242  and  _244
REMARK   99  A    between atoms: _244  and  _245
REMARK  100  A    between atoms: _244  and  _247
REMARK  101  A    between atoms: _247  and  _248
REMARK  102  A    between atoms: _251  and  _253
REMARK  103  A    between atoms: _253  and  _254
REMARK  104  A    between atoms: _253  and  _256
REMARK  105  A    between atoms: _256  and  _257
REMARK  106  A    between atoms: _260  and  _262
REMARK  107  A    between atoms: _262  and  _263
REMARK  108  A    between atoms: _265  and  _267
REMARK  109  A    between atoms: _267  and  _268
REMARK  110  A    between atoms: _267  and  _270
REMARK  111  A    between atoms: _270  and  _271
REMARK  112  A    between atoms: _271  and  _272
REMARK  113  A    between atoms: _272  and  _273
REMARK  114  A    between atoms: _282  and  _284
REMARK  115  A    between atoms: _284  and  _285
REMARK  116  A    between atoms: _284  and  _287
REMARK  117  A    between atoms: _287  and  _288
REMARK  118  A    between atoms: _293  and  _295
REMARK  119  A    between atoms: _295  and  _296
REMARK  120  A    between atoms: _295  and  _298
REMARK  121  A    between atoms: _298  and  _299
REMARK  122  A    between atoms: _299  and  _300
REMARK  123  A    between atoms: _300  and  _301
REMARK  124  A    between atoms: _310  and  _312
REMARK  125  A    between atoms: _312  and  _313
REMARK  126  A    between atoms: _312  and  _315
REMARK  127  A    between atoms: _315  and  _316
REMARK  128  A    between atoms: _319  and  _321
REMARK  129  A    between atoms: _321  and  _322
REMARK  130  A    between atoms: _321  and  _324
REMARK  131  A    between atoms: _324  and  _325
REMARK  132  A    between atoms: _328  and  _330
REMARK  133  A    between atoms: _330  and  _331
REMARK  134  A    between atoms: _330  and  _333
REMARK  135  A    between atoms: _333  and  _334
REMARK  136  A    between atoms: _337  and  _339
REMARK  137  A    between atoms: _339  and  _340
REMARK  138  A    between atoms: _339  and  _342
REMARK  139  A    between atoms: _342  and  _343
REMARK  140  A    between atoms: _346  and  _348
REMARK  141  A    between atoms: _348  and  _349
REMARK  142  A    between atoms: _351  and  _353
REMARK  143  A    between atoms: _353  and  _354
REMARK  144  A    between atoms: _357  and  _359
REMARK  145  A    between atoms: _359  and  _360
REMARK  146  A    between atoms: _359  and  _362
REMARK  147  A    between atoms: _362  and  _363
REMARK  148  A    between atoms: _366  and  _368
REMARK  149  A    between atoms: _368  and  _369
REMARK  150  A    between atoms: _368  and  _371
REMARK  151  A    between atoms: _371  and  _372
REMARK  152  A    between atoms: _377  and  _379
REMARK  153  A    between atoms: _379  and  _380
REMARK  154  A    between atoms: _379  and  _382
REMARK  155  A    between atoms: _382  and  _383
REMARK  156  A    between atoms: _386  and  _388
REMARK  157  A    between atoms: _388  and  _389
REMARK  158  A    between atoms: _388  and  _391
REMARK  159  A    between atoms: _394  and  _396
REMARK  160  A    between atoms: _396  and  _397
REMARK  161  A    between atoms: _396  and  _399
REMARK  162  A    between atoms: _399  and  _400
REMARK  163  A    between atoms: _400  and  _401
REMARK  164  A    between atoms: _401  and  _402
REMARK  165  A    between atoms: _402  and  _403
REMARK  166  A    between atoms: _407  and  _409
REMARK  167  A    between atoms: _409  and  _410
REMARK  168  A    between atoms: _409  and  _412
REMARK  169  A    between atoms: _412  and  _413
REMARK  170  A    between atoms: _413  and  _414
REMARK  171  A    between atoms: _416  and  _418
REMARK  172  A    between atoms: _418  and  _419
REMARK  173  A    between atoms: _418  and  _421
REMARK  174  A    between atoms: _421  and  _422
REMARK  175  A    between atoms: _425  and  _427
REMARK  176  A    between atoms: _427  and  _428
REMARK  177  A    between atoms: _430  and  _432
REMARK  178  A    between atoms: _432  and  _433
REMARK  179  A    between atoms: _435  and  _437
REMARK  180  A    between atoms: _437  and  _438
REMARK  181  A    between atoms: _437  and  _440
REMARK  182  A    between atoms: _440  and  _441
REMARK  183  A    between atoms: _444  and  _446
REMARK  184  A    between atoms: _446  and  _447
REMARK  185  A    between atoms: _449  and  _451
REMARK  186  A    between atoms: _451  and  _452
REMARK  187  A    between atoms: _454  and  _456
REMARK  188  A    between atoms: _456  and  _457
REMARK  189  A    between atoms: _456  and  _459
REMARK  190  A    between atoms: _459  and  _460
REMARK  191  A    between atoms: _466  and  _468
REMARK  192  A    between atoms: _468  and  _469
REMARK  193  A    between atoms: _468  and  _471
REMARK  194  A    between atoms: _471  and  _472
REMARK  195  A    between atoms: _475  and  _477
REMARK  196  A    between atoms: _477  and  _478
REMARK  197  A    between atoms: _477  and  _480
REMARK  198  A    between atoms: _483  and  _485
REMARK  199  A    between atoms: _485  and  _486
REMARK  200  A    between atoms: _485  and  _488
REMARK  201  A    between atoms: _488  and  _489
REMARK  202  A    between atoms: _492  and  _494
REMARK  203  A    between atoms: _494  and  _495
REMARK  204  A    between atoms: _494  and  _497
REMARK  205  A    between atoms: _497  and  _498
REMARK  206  A    between atoms: _502  and  _503
REMARK  207  A    between atoms: _508  and  _510
REMARK  208  A    between atoms: _510  and  _511
REMARK  209  A    between atoms: _510  and  _513
REMARK  210  A    between atoms: _516  and  _518
REMARK  211  A    between atoms: _518  and  _519
REMARK  212  A    between atoms: _518  and  _521
REMARK  213  A    between atoms: _521  and  _522
REMARK  214  A    between atoms: _527  and  _529
REMARK  215  A    between atoms: _529  and  _530
REMARK  216  A    between atoms: _529  and  _532
REMARK  217  A    between atoms: _532  and  _533
REMARK  218  A    between atoms: _536  and  _538
REMARK  219  A    between atoms: _538  and  _539
REMARK  220  A    between atoms: _541  and  _543
REMARK  221  A    between atoms: _543  and  _544
REMARK  222  A    between atoms: _543  and  _546
REMARK  223  A    between atoms: _546  and  _547
REMARK  224  A    between atoms: _547  and  _548
REMARK  225  A    between atoms: _548  and  _549
REMARK  226  A    between atoms: _558  and  _560
REMARK  227  A    between atoms: _560  and  _561
REMARK  228  A    between atoms: _560  and  _563
REMARK  229  A    between atoms: _563  and  _564
REMARK                            x       y       z     vdW  Elec       q    Type
REMARK                         _______ _______ _______ _____ _____    ______ ____
ROOT
ATOM      1  C   GLY A   5      21.676  19.929  17.314  0.00  0.00    +0.243 C 
ATOM      2  O   GLY A   5      22.728  19.465  17.781  0.00  0.00    -0.273 OA
ATOM      3  N   ILE A   6      20.476  19.370  17.483  0.00  0.00    -0.297 N 
ATOM      4  H   ILE A   6      19.629  19.740  17.007  0.00  0.00    +0.150 HD
ENDROOT
BRANCH   1   5
ATOM      5  CA  GLY A   5      21.713  21.190  16.478  0.00  0.00    +0.176 C 
BRANCH   5   7
ATOM      6  C   GLY A   4      23.474  22.593  15.520  0.00  0.00    +0.243 C 
ATOM      7  N   GLY A   5      23.065  21.475  16.064  0.00  0.00    -0.295 N 
ATOM      8  H   GLY A   5      23.775  20.729  16.210  0.00  0.00    +0.150 HD
ATOM      9  O   GLY A   4      22.870  23.631  15.251  0.00  0.00    -0.273 OA
BRANCH   6  10
ATOM     10  CA  GLY A   4      24.957  22.583  15.166  0.00  0.00    +0.176 C 
BRANCH  10  12
ATOM     11  C   ILE A   3      25.264  23.741  13.083  0.00  0.00    +0.241 C 
ATOM     12  N   GLY A   4      25.201  23.799  14.403  0.00  0.00    -0.295 N 
ATOM     13  H   GLY A   4      25.325  24.708  14.893  0.00  0.00    +0.150 HD
ATOM     14  O   ILE A   3      25.047  22.757  12.382  0.00  0.00    -0.273 OA
BRANCH  11  15
ATOM     15  CA  ILE A   3      25.719  25.068  12.489  0.00  0.00    +0.149 C 
BRANCH  15  18
ATOM     16  C   MET A   2      27.750  25.346  11.258  0.00  0.00    +0.241 C 
ATOM     17  O   MET A   2      28.166  26.152  12.112  0.00  0.00    -0.273 OA
ATOM     18  N   ILE A   3      26.563  24.748  11.347  0.00  0.00    -0.297 N 
ATOM     19  H   ILE A   3      26.248  24.072  10.622  0.00  0.00    +0.150 HD
BRANCH  16  20
ATOM     20  CA  MET A   2      28.615  24.964  10.045  0.00  0.00    +0.149 C 
BRANCH  20  22
ATOM     21  C   LYS A   1      28.829  26.579   8.268  0.00  0.00    +0.238 C 
ATOM     22  N   MET A   2      29.207  26.156   9.480  0.00  0.00    -0.297 N 
ATOM     23  H   MET A   2      29.926  26.684  10.015  0.00  0.00    +0.150 HD
ATOM     24  O   LYS A   1      28.148  25.917   7.464  0.00  0.00    -0.274 OA
BRANCH  21  25
ATOM     25  CA  LYS A   1      29.278  27.984   7.877  0.00  0.00    +0.145 C 
BRANCH  25  26
ATOM     26  N   LYS A   1      29.324  28.052   6.423  0.00  0.00    -0.238 NA
ATOM     27  H   LYS A   1      28.635  27.494   5.879  0.00  0.00    +0.142 HD
ENDBRANCH  25  26
BRANCH  25  28
ATOM     28  CB  LYS A   1      28.278  29.015   8.376  0.00  0.00    +0.026 C 
BRANCH  28  29
ATOM     29  CG  LYS A   1      28.140  29.304   9.857  0.00  0.00    -0.000 C 
BRANCH  29  30
ATOM     30  CD  LYS A   1      27.058  30.325  10.154  0.00  0.00    -0.024 C 
BRANCH  30  31
ATOM     31  CE  LYS A   1      26.770  30.529  11.642  0.00  0.00    -0.086 C 
BRANCH  31  32
ATOM     32  NZ  LYS A   1      27.918  31.107  12.377  0.00  0.00    +0.380 N 
ATOM     33  HZ1 LYS A   1      27.664  31.222  13.379  0.00  0.00    -0.089 HD
ATOM     34  HZ2 LYS A   1      28.736  30.470  12.296  0.00  0.00    -0.089 HD
ATOM     35  HZ3 LYS A   1      28.158  32.034  11.970  0.00  0.00    -0.089 HD
ENDBRANCH  31  32
ENDBRANCH  30  31
ENDBRANCH  29  30
ENDBRANCH  28  29
ENDBRANCH  25  28
ENDBRANCH  21  25
ENDBRANCH  20  22
BRANCH  20  36
ATOM     36  CB  MET A   2      29.685  23.983  10.533  0.00  0.00    +0.041 C 
BRANCH  36  37
ATOM     37  CG  MET A   2      30.559  23.409   9.418  0.00  0.00    +0.060 C 
BRANCH  37  38
ATOM     38  SD  MET A   2      29.722  21.959   8.734  0.00  0.00    -0.139 S 
ATOM     39  CE  MET A   2      30.750  20.729   9.570  0.00  0.00    +0.069 C 
ENDBRANCH  37  38
ENDBRANCH  36  37
ENDBRANCH  20  36
ENDBRANCH  16  20
ENDBRANCH  15  18
BRANCH  15  40
ATOM     40  CB  ILE A   3      24.433  25.865  12.253  0.00  0.00    +0.027 C 
ATOM     41  CG2 ILE A   3      24.733  27.316  11.991  0.00  0.00    +0.002 C 
BRANCH  40  42
ATOM     42  CG1 ILE A   3      23.554  25.256  11.146  0.00  0.00    +0.002 C 
ATOM     43  CD1 ILE A   3      22.232  25.977  11.053  0.00  0.00    +0.000 C 
ENDBRANCH  40  42
ENDBRANCH  15  40
ENDBRANCH  11  15
ENDBRANCH  10  12
ENDBRANCH   6  10
ENDBRANCH   5   7
ENDBRANCH   1   5
BRANCH   3  44
ATOM     44  CA  ILE A   6      20.413  18.216  18.367  0.00  0.00    +0.149 C 
BRANCH  44  45
ATOM     45  C   ILE A   6      21.293  17.065  17.894  0.00  0.00    +0.241 C 
ATOM     46  O   ILE A   6      21.902  16.445  18.768  0.00  0.00    -0.273 OA
ATOM     47  N   GLY A   7      21.351  16.789  16.600  0.00  0.00    -0.295 N 
ATOM     48  H   GLY A   7      20.992  17.511  15.943  0.00  0.00    +0.150 HD
BRANCH  47  49
ATOM     49  CA  GLY A   7      21.870  15.572  16.025  0.00  0.00    +0.176 C 
BRANCH  49  50
ATOM     50  C   GLY A   7      23.158  15.784  15.252  0.00  0.00    +0.243 C 
ATOM     51  N   GLY A   8      23.869  16.855  15.623  0.00  0.00    -0.295 N 
ATOM     52  H   GLY A   8      23.516  17.476  16.379  0.00  0.00    +0.150 HD
ATOM     53  O   GLY A   7      23.501  15.003  14.355  0.00  0.00    -0.273 OA
BRANCH  51  54
ATOM     54  CA  GLY A   8      25.139  17.153  14.969  0.00  0.00    +0.176 C 
BRANCH  54  55
ATOM     55  C   GLY A   8      25.120  18.489  14.236  0.00  0.00    +0.243 C 
ATOM     56  O   GLY A   8      24.382  19.396  14.635  0.00  0.00    -0.273 OA
ATOM     57  N   PHE A   9      25.927  18.593  13.179  0.00  0.00    -0.297 N 
ATOM     58  H   PHE A   9      26.487  17.759  12.908  0.00  0.00    +0.150 HD
BRANCH  57  59
ATOM     59  CA  PHE A   9      26.070  19.787  12.392  0.00  0.00    +0.153 C 
BRANCH  59  60
ATOM     60  C   PHE A   9      25.629  19.626  10.959  0.00  0.00    +0.241 C 
ATOM     61  O   PHE A   9      25.748  18.535  10.437  0.00  0.00    -0.273 OA
ATOM     62  N   ILE A  10      25.194  20.709  10.349  0.00  0.00    -0.298 N 
ATOM     63  H   ILE A  10      24.976  21.550  10.921  0.00  0.00    +0.150 HD
BRANCH  62  64
ATOM     64  CA  ILE A  10      25.004  20.778   8.897  0.00  0.00    +0.137 C 
BRANCH  64  65
ATOM     65  CB  ILE A  10      23.527  20.936   8.491  0.00  0.00    +0.026 C 
ATOM     66  CG2 ILE A  10      22.751  19.695   8.935  0.00  0.00    +0.002 C 
BRANCH  65  67
ATOM     67  CG1 ILE A  10      22.890  22.209   9.005  0.00  0.00    +0.002 C 
ATOM     68  CD1 ILE A  10      21.511  22.482   8.419  0.00  0.00    +0.000 C 
ENDBRANCH  65  67
ENDBRANCH  64  65
BRANCH  64  69
ATOM     69  C   ILE A  10      25.822  21.948   8.372  0.00  0.00    +0.227 C 
ATOM     70  O   ILE A  10      26.101  22.956   9.021  0.00  0.00    -0.286 OA
ENDBRANCH  64  69
ENDBRANCH  62  64
ENDBRANCH  59  60
BRANCH  59  71
ATOM     71  CB  PHE A   9      27.562  20.188  12.382  0.00  0.00    +0.055 C 
BRANCH  71  72
ATOM     72  CG  PHE A   9      27.999  20.802  13.705  0.00  0.00    -0.020 A 
ATOM     73  CD2 PHE A   9      28.292  19.995  14.786  0.00  0.00    -0.004 A 
ATOM     74  CE2 PHE A   9      28.682  20.559  15.981  0.00  0.00    -0.000 A 
ATOM     75  CZ  PHE A   9      28.763  21.934  16.101  0.00  0.00    -0.000 A 
ATOM     76  CE1 PHE A   9      28.481  22.749  15.029  0.00  0.00    -0.000 A 
ATOM     77  CD1 PHE A   9      28.106  22.179  13.828  0.00  0.00    -0.004 A 
ENDBRANCH  71  72
ENDBRANCH  59  71
ENDBRANCH  57  59
ENDBRANCH  54  55
ENDBRANCH  51  54
ENDBRANCH  49  50
ENDBRANCH  47  49
ENDBRANCH  44  45
BRANCH  44  78
ATOM     78  CB  ILE A   6      18.955  17.766  18.617  0.00  0.00    +0.027 C 
ATOM     79  CG2 ILE A   6      18.434  16.492  18.021  0.00  0.00    +0.002 C 
BRANCH  78  80
ATOM     80  CG1 ILE A   6      18.803  17.697  20.155  0.00  0.00    +0.002 C 
ATOM     81  CD1 ILE A   6      17.422  17.784  20.715  0.00  0.00    +0.000 C 
ENDBRANCH  78  80
ENDBRANCH  44  78
ENDBRANCH   3  44
TORSDOF 36
REMARK  Name = ../refined-set-2016/4hdb/4hdb_pocket.pdb
REMARK  229 active torsions:
REMARK  status: ('A' for Active; 'I' for Inactive)
REMARK    1  A    between atoms: _1  and  _3
REMARK    2  A    between atoms: _3  and  _4
REMARK    3  A    between atoms: _3  and  _6
REMARK    4  A    between atoms: _6  and  _7
REMARK    5  A    between atoms: _7  and  _8
REMARK    6  A    between atoms: _8  and  _9
REMARK    7  A    between atoms: _18  and  _20
REMARK    8  A    between atoms: _20  and  _21
REMARK    9  A    between atoms: _20  and  _23
REMARK   10  A    between atoms: _23  and  _24
REMARK   11  A    between atoms: _27  and  _29
REMARK   12  A    between atoms: _29  and  _30
REMARK   13  A    between atoms: _29  and  _32
REMARK   14  A    between atoms: _32  and  _33
REMARK   15  A    between atoms: _36  and  _38
REMARK   16  A    between atoms: _38  and  _39
REMARK   17  A    between atoms: _38  and  _41
REMARK   18  A    between atoms: _41  and  _42
REMARK   19  A    between atoms: _45  and  _47
REMARK   20  A    between atoms: _47  and  _48
REMARK   21  A    between atoms: _47  and  _50
REMARK   22  A    between atoms: _50  and  _51
REMARK   23  A    between atoms: _54  and  _56
REMARK   24  A    between atoms: _56  and  _57
REMARK   25  A    between atoms: _59  and  _61
REMARK   26  A    between atoms: _61  and  _62
REMARK   27  A    between atoms: _65  and  _67
REMARK   28  A    between atoms: _67  and  _68
REMARK   29  A    between atoms: _67  and  _70
REMARK   30  A    between atoms: _70  and  _71
REMARK   31  A    between atoms: _74  and  _76
REMARK   32  A    between atoms: _76  and  _77
REMARK   33  A    between atoms: _76  and  _79
REMARK   34  A    between atoms: _79  and  _80
REMARK   35  A    between atoms: _85  and  _87
REMARK   36  A    between atoms: _87  and  _88
REMARK   37  A    between atoms: _87  and  _90
REMARK   38  A    between atoms: _90  and  _91
REMARK   39  A    between atoms: _94  and  _96
REMARK   40  A    between atoms: _96  and  _97
REMARK   41  A    between atoms: _96  and  _99
REMARK   42  A    between atoms: _102  and  _104
REMARK   43  A    between atoms: _104  and  _105
REMARK   44  A    between atoms: _104  and  _107
REMARK   45  A    between atoms: _107  and  _108
REMARK   46  A    between atoms: _108  and  _109
REMARK   47  A    between atoms: _109  and  _110
REMARK   48  A    between atoms: _110  and  _111
REMARK   49  A    between atoms: _115  and  _117
REMARK   50  A    between atoms: _117  and  _118
REMARK   51  A    between atoms: _117  and  _120
REMARK   52  A    between atoms: _120  and  _121
REMARK   53  A    between atoms: _121  and  _122
REMARK   54  A    between atoms: _124  and  _126
REMARK   55  A    between atoms: _126  and  _127
REMARK   56  A    between atoms: _126  and  _129
REMARK   57  A    between atoms: _129  and  _130
REMARK   58  A    between atoms: _133  and  _135
REMARK   59  A    between atoms: _135  and  _136
REMARK   60  A    between atoms: _138  and  _140
REMARK   61  A    between atoms: _140  and  _141
REMARK   62  A    between atoms: _143  and  _145
REMARK   63  A    between atoms: _145  and  _146
REMARK   64  A    between atoms: _145  and  _148
REMARK   65  A    between atoms: _148  and  _149
REMARK   66  A    between atoms: _152  and  _154
REMARK   67  A    between atoms: _154  and  _155
REMARK   68  A    between atoms: _157  and  _159
REMARK   69  A    between atoms: _159  and  _160
REMARK   70  A    between atoms: _162  and  _164
REMARK   71  A    between atoms: _164  and  _165
REMARK   72  A    between atoms: _164  and  _167
REMARK   73  A    between atoms: _167  and  _168
REMARK   74  A    between atoms: _174  and  _176
REMARK   75  A    between atoms: _176  and  _177
REMARK   76  A    between atoms: _176  and  _179
REMARK   77  A    between atoms: _179  and  _180
REMARK   78  A    between atoms: _183  and  _185
REMARK   79  A    between atoms: _185  and  _186
REMARK   80  A    between atoms: _185  and  _188
REMARK   81  A    between atoms: _191  and  _193
REMARK   82  A    between atoms: _193  and  _194
REMARK   83  A    between atoms: _193  and  _196
REMARK   84  A    between atoms: _196  and  _197
REMARK   85  A    between atoms: _201  and  _202
REMARK   86  A    between atoms: _207  and  _209
REMARK   87  A    between atoms: _209  and  _210
REMARK   88  A    between atoms: _209  and  _212
REMARK   89  A    between atoms: _212  and  _213
REMARK   90  A    between atoms: _217  and  _218
REMARK   91  A    between atoms: _223  and  _225
REMARK   92  A    between atoms: _225  and  _226
REMARK   93  A    between atoms: _225  and  _228
REMARK   94  A    between atoms: _231  and  _233
REMARK   95  A    between atoms: _233  and  _234
REMARK   96  A    between atoms: _233  and  _236
REMARK   97  A    between atoms: _236  and  _237
REMARK   98  A    between atoms: _242  and  _244
REMARK   99  A    between atoms: _244  and  _245
REMARK  100  A    between atoms: _244  and  _247
REMARK  101  A    between atoms: _247  and  _248
REMARK  102  A    between atoms: _251  and  _253
REMARK  103  A    between atoms: _253  and  _254
REMARK  104  A    between atoms: _253  and  _256
REMARK  105  A    between atoms: _256  and  _257
REMARK  106  A    between atoms: _260  and  _262
REMARK  107  A    between atoms: _262  and  _263
REMARK  108  A    between atoms: _265  and  _267
REMARK  109  A    between atoms: _267  and  _268
REMARK  110  A    between atoms: _267  and  _270
REMARK  111  A    between atoms: _270  and  _271
REMARK  112  A    between atoms: _271  and  _272
REMARK  113  A    between atoms: _272  and  _273
REMARK  114  A    between atoms: _282  and  _284
REMARK  115  A    between atoms: _284  and  _285
REMARK  116  A    between atoms: _284  and  _287
REMARK  117  A    between atoms: _287  and  _288
REMARK  118  A    between atoms: _293  and  _295
REMARK  119  A    between atoms: _295  and  _296
REMARK  120  A    between atoms: _295  and  _298
REMARK  121  A    between atoms: _298  and  _299
REMARK  122  A    between atoms: _299  and  _300
REMARK  123  A    between atoms: _300  and  _301
REMARK  124  A    between atoms: _310  and  _312
REMARK  125  A    between atoms: _312  and  _313
REMARK  126  A    between atoms: _312  and  _315
REMARK  127  A    between atoms: _315  and  _316
REMARK  128  A    between atoms: _319  and  _321
REMARK  129  A    between atoms: _321  and  _322
REMARK  130  A    between atoms: _321  and  _324
REMARK  131  A    between atoms: _324  and  _325
REMARK  132  A    between atoms: _328  and  _330
REMARK  133  A    between atoms: _330  and  _331
REMARK  134  A    between atoms: _330  and  _333
REMARK  135  A    between atoms: _333  and  _334
REMARK  136  A    between atoms: _337  and  _339
REMARK  137  A    between atoms: _339  and  _340
REMARK  138  A    between atoms: _339  and  _342
REMARK  139  A    between atoms: _342  and  _343
REMARK  140  A    between atoms: _346  and  _348
REMARK  141  A    between atoms: _348  and  _349
REMARK  142  A    between atoms: _351  and  _353
REMARK  143  A    between atoms: _353  and  _354
REMARK  144  A    between atoms: _357  and  _359
REMARK  145  A    between atoms: _359  and  _360
REMARK  146  A    between atoms: _359  and  _362
REMARK  147  A    between atoms: _362  and  _363
REMARK  148  A    between atoms: _366  and  _368
REMARK  149  A    between atoms: _368  and  _369
REMARK  150  A    between atoms: _368  and  _371
REMARK  151  A    between atoms: _371  and  _372
REMARK  152  A    between atoms: _377  and  _379
REMARK  153  A    between atoms: _379  and  _380
REMARK  154  A    between atoms: _379  and  _382
REMARK  155  A    between atoms: _382  and  _383
REMARK  156  A    between atoms: _386  and  _388
REMARK  157  A    between atoms: _388  and  _389
REMARK  158  A    between atoms: _388  and  _391
REMARK  159  A    between atoms: _394  and  _396
REMARK  160  A    between atoms: _396  and  _397
REMARK  161  A    between atoms: _396  and  _399
REMARK  162  A    between atoms: _399  and  _400
REMARK  163  A    between atoms: _400  and  _401
REMARK  164  A    between atoms: _401  and  _402
REMARK  165  A    between atoms: _402  and  _403
REMARK  166  A    between atoms: _407  and  _409
REMARK  167  A    between atoms: _409  and  _410
REMARK  168  A    between atoms: _409  and  _412
REMARK  169  A    between atoms: _412  and  _413
REMARK  170  A    between atoms: _413  and  _414
REMARK  171  A    between atoms: _416  and  _418
REMARK  172  A    between atoms: _418  and  _419
REMARK  173  A    between atoms: _418  and  _421
REMARK  174  A    between atoms: _421  and  _422
REMARK  175  A    between atoms: _425  and  _427
REMARK  176  A    between atoms: _427  and  _428
REMARK  177  A    between atoms: _430  and  _432
REMARK  178  A    between atoms: _432  and  _433
REMARK  179  A    between atoms: _435  and  _437
REMARK  180  A    between atoms: _437  and  _438
REMARK  181  A    between atoms: _437  and  _440
REMARK  182  A    between atoms: _440  and  _441
REMARK  183  A    between atoms: _444  and  _446
REMARK  184  A    between atoms: _446  and  _447
REMARK  185  A    between atoms: _449  and  _451
REMARK  186  A    between atoms: _451  and  _452
REMARK  187  A    between atoms: _454  and  _456
REMARK  188  A    between atoms: _456  and  _457
REMARK  189  A    between atoms: _456  and  _459
REMARK  190  A    between atoms: _459  and  _460
REMARK  191  A    between atoms: _466  and  _468
REMARK  192  A    between atoms: _468  and  _469
REMARK  193  A    between atoms: _468  and  _471
REMARK  194  A    between atoms: _471  and  _472
REMARK  195  A    between atoms: _475  and  _477
REMARK  196  A    between atoms: _477  and  _478
REMARK  197  A    between atoms: _477  and  _480
REMARK  198  A    between atoms: _483  and  _485
REMARK  199  A    between atoms: _485  and  _486
REMARK  200  A    between atoms: _485  and  _488
REMARK  201  A    between atoms: _488  and  _489
REMARK  202  A    between atoms: _492  and  _494
REMARK  203  A    between atoms: _494  and  _495
REMARK  204  A    between atoms: _494  and  _497
REMARK  205  A    between atoms: _497  and  _498
REMARK  206  A    between atoms: _502  and  _503
REMARK  207  A    between atoms: _508  and  _510
REMARK  208  A    between atoms: _510  and  _511
REMARK  209  A    between atoms: _510  and  _513
REMARK  210  A    between atoms: _516  and  _518
REMARK  211  A    between atoms: _518  and  _519
REMARK  212  A    between atoms: _518  and  _521
REMARK  213  A    between atoms: _521  and  _522
REMARK  214  A    between atoms: _527  and  _529
REMARK  215  A    between atoms: _529  and  _530
REMARK  216  A    between atoms: _529  and  _532
REMARK  217  A    between atoms: _532  and  _533
REMARK  218  A    between atoms: _536  and  _538
REMARK  219  A    between atoms: _538  and  _539
REMARK  220  A    between atoms: _541  and  _543
REMARK  221  A    between atoms: _543  and  _544
REMARK  222  A    between atoms: _543  and  _546
REMARK  223  A    between atoms: _546  and  _547
REMARK  224  A    between atoms: _547  and  _548
REMARK  225  A    between atoms: _548  and  _549
REMARK  226  A    between atoms: _558  and  _560
REMARK  227  A    between atoms: _560  and  _561
REMARK  228  A    between atoms: _560  and  _563
REMARK  229  A    between atoms: _563  and  _564
REMARK                            x       y       z     vdW  Elec       q    Type
REMARK                         _______ _______ _______ _____ _____    ______ ____
ROOT
ATOM      1  CA  VAL A   1      25.011  26.063   5.331  0.00  0.00    +0.133 C 
ENDROOT
BRANCH   1   2
ATOM      2  CB  VAL A   1      24.100  26.665   6.409  0.00  0.00    +0.023 C 
ATOM      3  CG2 VAL A   1      24.909  27.370   7.497  0.00  0.00    +0.002 C 
ATOM      4  CG1 VAL A   1      23.251  25.552   7.036  0.00  0.00    +0.002 C 
ENDBRANCH   1   2
BRANCH   1   5
ATOM      5  N   VAL A   1      25.955  25.097   5.910  0.00  0.00    -0.239 NA
ATOM      6  H   VAL A   1      26.766  25.449   6.458  0.00  0.00    +0.142 HD
ENDBRANCH   1   5
BRANCH   1   7
ATOM      7  C   VAL A   1      25.792  27.146   4.574  0.00  0.00    +0.224 C 
ATOM      8  O   VAL A   1      27.010  27.306   4.674  0.00  0.00    -0.287 OA
ENDBRANCH   1   7
TORSDOF 3
REMARK  Name = ../refined-set-2016/4hdb/4hdb_pocket.pdb
REMARK  229 active torsions:
REMARK  status: ('A' for Active; 'I' for Inactive)
REMARK    1  A    between atoms: _1  and  _3
REMARK    2  A    between atoms: _3  and  _4
REMARK    3  A    between atoms: _3  and  _6
REMARK    4  A    between atoms: _6  and  _7
REMARK    5  A    between atoms: _7  and  _8
REMARK    6  A    between atoms: _8  and  _9
REMARK    7  A    between atoms: _18  and  _20
REMARK    8  A    between atoms: _20  and  _21
REMARK    9  A    between atoms: _20  and  _23
REMARK   10  A    between atoms: _23  and  _24
REMARK   11  A    between atoms: _27  and  _29
REMARK   12  A    between atoms: _29  and  _30
REMARK   13  A    between atoms: _29  and  _32
REMARK   14  A    between atoms: _32  and  _33
REMARK   15  A    between atoms: _36  and  _38
REMARK   16  A    between atoms: _38  and  _39
REMARK   17  A    between atoms: _38  and  _41
REMARK   18  A    between atoms: _41  and  _42
REMARK   19  A    between atoms: _45  and  _47
REMARK   20  A    between atoms: _47  and  _48
REMARK   21  A    between atoms: _47  and  _50
REMARK   22  A    between atoms: _50  and  _51
REMARK   23  A    between atoms: _54  and  _56
REMARK   24  A    between atoms: _56  and  _57
REMARK   25  A    between atoms: _59  and  _61
REMARK   26  A    between atoms: _61  and  _62
REMARK   27  A    between atoms: _65  and  _67
REMARK   28  A    between atoms: _67  and  _68
REMARK   29  A    between atoms: _67  and  _70
REMARK   30  A    between atoms: _70  and  _71
REMARK   31  A    between atoms: _74  and  _76
REMARK   32  A    between atoms: _76  and  _77
REMARK   33  A    between atoms: _76  and  _79
REMARK   34  A    between atoms: _79  and  _80
REMARK   35  A    between atoms: _85  and  _87
REMARK   36  A    between atoms: _87  and  _88
REMARK   37  A    between atoms: _87  and  _90
REMARK   38  A    between atoms: _90  and  _91
REMARK   39  A    between atoms: _94  and  _96
REMARK   40  A    between atoms: _96  and  _97
REMARK   41  A    between atoms: _96  and  _99
REMARK   42  A    between atoms: _102  and  _104
REMARK   43  A    between atoms: _104  and  _105
REMARK   44  A    between atoms: _104  and  _107
REMARK   45  A    between atoms: _107  and  _108
REMARK   46  A    between atoms: _108  and  _109
REMARK   47  A    between atoms: _109  and  _110
REMARK   48  A    between atoms: _110  and  _111
REMARK   49  A    between atoms: _115  and  _117
REMARK   50  A    between atoms: _117  and  _118
REMARK   51  A    between atoms: _117  and  _120
REMARK   52  A    between atoms: _120  and  _121
REMARK   53  A    between atoms: _121  and  _122
REMARK   54  A    between atoms: _124  and  _126
REMARK   55  A    between atoms: _126  and  _127
REMARK   56  A    between atoms: _126  and  _129
REMARK   57  A    between atoms: _129  and  _130
REMARK   58  A    between atoms: _133  and  _135
REMARK   59  A    between atoms: _135  and  _136
REMARK   60  A    between atoms: _138  and  _140
REMARK   61  A    between atoms: _140  and  _141
REMARK   62  A    between atoms: _143  and  _145
REMARK   63  A    between atoms: _145  and  _146
REMARK   64  A    between atoms: _145  and  _148
REMARK   65  A    between atoms: _148  and  _149
REMARK   66  A    between atoms: _152  and  _154
REMARK   67  A    between atoms: _154  and  _155
REMARK   68  A    between atoms: _157  and  _159
REMARK   69  A    between atoms: _159  and  _160
REMARK   70  A    between atoms: _162  and  _164
REMARK   71  A    between atoms: _164  and  _165
REMARK   72  A    between atoms: _164  and  _167
REMARK   73  A    between atoms: _167  and  _168
REMARK   74  A    between atoms: _174  and  _176
REMARK   75  A    between atoms: _176  and  _177
REMARK   76  A    between atoms: _176  and  _179
REMARK   77  A    between atoms: _179  and  _180
REMARK   78  A    between atoms: _183  and  _185
REMARK   79  A    between atoms: _185  and  _186
REMARK   80  A    between atoms: _185  and  _188
REMARK   81  A    between atoms: _191  and  _193
REMARK   82  A    between atoms: _193  and  _194
REMARK   83  A    between atoms: _193  and  _196
REMARK   84  A    between atoms: _196  and  _197
REMARK   85  A    between atoms: _201  and  _202
REMARK   86  A    between atoms: _207  and  _209
REMARK   87  A    between atoms: _209  and  _210
REMARK   88  A    between atoms: _209  and  _212
REMARK   89  A    between atoms: _212  and  _213
REMARK   90  A    between atoms: _217  and  _218
REMARK   91  A    between atoms: _223  and  _225
REMARK   92  A    between atoms: _225  and  _226
REMARK   93  A    between atoms: _225  and  _228
REMARK   94  A    between atoms: _231  and  _233
REMARK   95  A    between atoms: _233  and  _234
REMARK   96  A    between atoms: _233  and  _236
REMARK   97  A    between atoms: _236  and  _237
REMARK   98  A    between atoms: _242  and  _244
REMARK   99  A    between atoms: _244  and  _245
REMARK  100  A    between atoms: _244  and  _247
REMARK  101  A    between atoms: _247  and  _248
REMARK  102  A    between atoms: _251  and  _253
REMARK  103  A    between atoms: _253  and  _254
REMARK  104  A    between atoms: _253  and  _256
REMARK  105  A    between atoms: _256  and  _257
REMARK  106  A    between atoms: _260  and  _262
REMARK  107  A    between atoms: _262  and  _263
REMARK  108  A    between atoms: _265  and  _267
REMARK  109  A    between atoms: _267  and  _268
REMARK  110  A    between atoms: _267  and  _270
REMARK  111  A    between atoms: _270  and  _271
REMARK  112  A    between atoms: _271  and  _272
REMARK  113  A    between atoms: _272  and  _273
REMARK  114  A    between atoms: _282  and  _284
REMARK  115  A    between atoms: _284  and  _285
REMARK  116  A    between atoms: _284  and  _287
REMARK  117  A    between atoms: _287  and  _288
REMARK  118  A    between atoms: _293  and  _295
REMARK  119  A    between atoms: _295  and  _296
REMARK  120  A    between atoms: _295  and  _298
REMARK  121  A    between atoms: _298  and  _299
REMARK  122  A    between atoms: _299  and  _300
REMARK  123  A    between atoms: _300  and  _301
REMARK  124  A    between atoms: _310  and  _312
REMARK  125  A    between atoms: _312  and  _313
REMARK  126  A    between atoms: _312  and  _315
REMARK  127  A    between atoms: _315  and  _316
REMARK  128  A    between atoms: _319  and  _321
REMARK  129  A    between atoms: _321  and  _322
REMARK  130  A    between atoms: _321  and  _324
REMARK  131  A    between atoms: _324  and  _325
REMARK  132  A    between atoms: _328  and  _330
REMARK  133  A    between atoms: _330  and  _331
REMARK  134  A    between atoms: _330  and  _333
REMARK  135  A    between atoms: _333  and  _334
REMARK  136  A    between atoms: _337  and  _339
REMARK  137  A    between atoms: _339  and  _340
REMARK  138  A    between atoms: _339  and  _342
REMARK  139  A    between atoms: _342  and  _343
REMARK  140  A    between atoms: _346  and  _348
REMARK  141  A    between atoms: _348  and  _349
REMARK  142  A    between atoms: _351  and  _353
REMARK  143  A    between atoms: _353  and  _354
REMARK  144  A    between atoms: _357  and  _359
REMARK  145  A    between atoms: _359  and  _360
REMARK  146  A    between atoms: _359  and  _362
REMARK  147  A    between atoms: _362  and  _363
REMARK  148  A    between atoms: _366  and  _368
REMARK  149  A    between atoms: _368  and  _369
REMARK  150  A    between atoms: _368  and  _371
REMARK  151  A    between atoms: _371  and  _372
REMARK  152  A    between atoms: _377  and  _379
REMARK  153  A    between atoms: _379  and  _380
REMARK  154  A    between atoms: _379  and  _382
REMARK  155  A    between atoms: _382  and  _383
REMARK  156  A    between atoms: _386  and  _388
REMARK  157  A    between atoms: _388  and  _389
REMARK  158  A    between atoms: _388  and  _391
REMARK  159  A    between atoms: _394  and  _396
REMARK  160  A    between atoms: _396  and  _397
REMARK  161  A    between atoms: _396  and  _399
REMARK  162  A    between atoms: _399  and  _400
REMARK  163  A    between atoms: _400  and  _401
REMARK  164  A    between atoms: _401  and  _402
REMARK  165  A    between atoms: _402  and  _403
REMARK  166  A    between atoms: _407  and  _409
REMARK  167  A    between atoms: _409  and  _410
REMARK  168  A    between atoms: _409  and  _412
REMARK  169  A    between atoms: _412  and  _413
REMARK  170  A    between atoms: _413  and  _414
REMARK  171  A    between atoms: _416  and  _418
REMARK  172  A    between atoms: _418  and  _419
REMARK  173  A    between atoms: _418  and  _421
REMARK  174  A    between atoms: _421  and  _422
REMARK  175  A    between atoms: _425  and  _427
REMARK  176  A    between atoms: _427  and  _428
REMARK  177  A    between atoms: _430  and  _432
REMARK  178  A    between atoms: _432  and  _433
REMARK  179  A    between atoms: _435  and  _437
REMARK  180  A    between atoms: _437  and  _438
REMARK  181  A    between atoms: _437  and  _440
REMARK  182  A    between atoms: _440  and  _441
REMARK  183  A    between atoms: _444  and  _446
REMARK  184  A    between atoms: _446  and  _447
REMARK  185  A    between atoms: _449  and  _451
REMARK  186  A    between atoms: _451  and  _452
REMARK  187  A    between atoms: _454  and  _456
REMARK  188  A    between atoms: _456  and  _457
REMARK  189  A    between atoms: _456  and  _459
REMARK  190  A    between atoms: _459  and  _460
REMARK  191  A    between atoms: _466  and  _468
REMARK  192  A    between atoms: _468  and  _469
REMARK  193  A    between atoms: _468  and  _471
REMARK  194  A    between atoms: _471  and  _472
REMARK  195  A    between atoms: _475  and  _477
REMARK  196  A    between atoms: _477  and  _478
REMARK  197  A    between atoms: _477  and  _480
REMARK  198  A    between atoms: _483  and  _485
REMARK  199  A    between atoms: _485  and  _486
REMARK  200  A    between atoms: _485  and  _488
REMARK  201  A    between atoms: _488  and  _489
REMARK  202  A    between atoms: _492  and  _494
REMARK  203  A    between atoms: _494  and  _495
REMARK  204  A    between atoms: _494  and  _497
REMARK  205  A    between atoms: _497  and  _498
REMARK  206  A    between atoms: _502  and  _503
REMARK  207  A    between atoms: _508  and  _510
REMARK  208  A    between atoms: _510  and  _511
REMARK  209  A    between atoms: _510  and  _513
REMARK  210  A    between atoms: _516  and  _518
REMARK  211  A    between atoms: _518  and  _519
REMARK  212  A    between atoms: _518  and  _521
REMARK  213  A    between atoms: _521  and  _522
REMARK  214  A    between atoms: _527  and  _529
REMARK  215  A    between atoms: _529  and  _530
REMARK  216  A    between atoms: _529  and  _532
REMARK  217  A    between atoms: _532  and  _533
REMARK  218  A    between atoms: _536  and  _538
REMARK  219  A    between atoms: _538  and  _539
REMARK  220  A    between atoms: _541  and  _543
REMARK  221  A    between atoms: _543  and  _544
REMARK  222  A    between atoms: _543  and  _546
REMARK  223  A    between atoms: _546  and  _547
REMARK  224  A    between atoms: _547  and  _548
REMARK  225  A    between atoms: _548  and  _549
REMARK  226  A    between atoms: _558  and  _560
REMARK  227  A    between atoms: _560  and  _561
REMARK  228  A    between atoms: _560  and  _563
REMARK  229  A    between atoms: _563  and  _564
REMARK                            x       y       z     vdW  Elec       q    Type
REMARK                         _______ _______ _______ _____ _____    ______ ____
ROOT
ATOM      1  CA  LEU A   1      21.574  30.598   6.719  0.00  0.00    +0.133 C 
ENDROOT
BRANCH   1   2
ATOM      2  N   LEU A   1      20.803  31.771   7.060  0.00  0.00    -0.239 NA
ATOM      3  H   LEU A   1      20.170  31.734   7.884  0.00  0.00    +0.142 HD
ENDBRANCH   1   2
BRANCH   1   4
ATOM      4  C   LEU A   1      20.751  29.686   5.841  0.00  0.00    +0.224 C 
ATOM      5  O   LEU A   1      19.592  29.472   6.178  0.00  0.00    -0.287 OA
ENDBRANCH   1   4
BRANCH   1   6
ATOM      6  CB  LEU A   1      21.928  29.868   8.022  0.00  0.00    +0.025 C 
BRANCH   6   7
ATOM      7  CG  LEU A   1      22.663  30.765   9.059  0.00  0.00    +0.002 C 
ATOM      8  CD2 LEU A   1      23.111  29.893  10.229  0.00  0.00    +0.000 C 
ATOM      9  CD1 LEU A   1      23.854  31.490   8.427  0.00  0.00    +0.000 C 
ENDBRANCH   6   7
ENDBRANCH   1   6
TORSDOF 4
REMARK  Name = ../refined-set-2016/4hdb/4hdb_pocket.pdb
REMARK  229 active torsions:
REMARK  status: ('A' for Active; 'I' for Inactive)
REMARK    1  A    between atoms: _1  and  _3
REMARK    2  A    between atoms: _3  and  _4
REMARK    3  A    between atoms: _3  and  _6
REMARK    4  A    between atoms: _6  and  _7
REMARK    5  A    between atoms: _7  and  _8
REMARK    6  A    between atoms: _8  and  _9
REMARK    7  A    between atoms: _18  and  _20
REMARK    8  A    between atoms: _20  and  _21
REMARK    9  A    between atoms: _20  and  _23
REMARK   10  A    between atoms: _23  and  _24
REMARK   11  A    between atoms: _27  and  _29
REMARK   12  A    between atoms: _29  and  _30
REMARK   13  A    between atoms: _29  and  _32
REMARK   14  A    between atoms: _32  and  _33
REMARK   15  A    between atoms: _36  and  _38
REMARK   16  A    between atoms: _38  and  _39
REMARK   17  A    between atoms: _38  and  _41
REMARK   18  A    between atoms: _41  and  _42
REMARK   19  A    between atoms: _45  and  _47
REMARK   20  A    between atoms: _47  and  _48
REMARK   21  A    between atoms: _47  and  _50
REMARK   22  A    between atoms: _50  and  _51
REMARK   23  A    between atoms: _54  and  _56
REMARK   24  A    between atoms: _56  and  _57
REMARK   25  A    between atoms: _59  and  _61
REMARK   26  A    between atoms: _61  and  _62
REMARK   27  A    between atoms: _65  and  _67
REMARK   28  A    between atoms: _67  and  _68
REMARK   29  A    between atoms: _67  and  _70
REMARK   30  A    between atoms: _70  and  _71
REMARK   31  A    between atoms: _74  and  _76
REMARK   32  A    between atoms: _76  and  _77
REMARK   33  A    between atoms: _76  and  _79
REMARK   34  A    between atoms: _79  and  _80
REMARK   35  A    between atoms: _85  and  _87
REMARK   36  A    between atoms: _87  and  _88
REMARK   37  A    between atoms: _87  and  _90
REMARK   38  A    between atoms: _90  and  _91
REMARK   39  A    between atoms: _94  and  _96
REMARK   40  A    between atoms: _96  and  _97
REMARK   41  A    between atoms: _96  and  _99
REMARK   42  A    between atoms: _102  and  _104
REMARK   43  A    between atoms: _104  and  _105
REMARK   44  A    between atoms: _104  and  _107
REMARK   45  A    between atoms: _107  and  _108
REMARK   46  A    between atoms: _108  and  _109
REMARK   47  A    between atoms: _109  and  _110
REMARK   48  A    between atoms: _110  and  _111
REMARK   49  A    between atoms: _115  and  _117
REMARK   50  A    between atoms: _117  and  _118
REMARK   51  A    between atoms: _117  and  _120
REMARK   52  A    between atoms: _120  and  _121
REMARK   53  A    between atoms: _121  and  _122
REMARK   54  A    between atoms: _124  and  _126
REMARK   55  A    between atoms: _126  and  _127
REMARK   56  A    between atoms: _126  and  _129
REMARK   57  A    between atoms: _129  and  _130
REMARK   58  A    between atoms: _133  and  _135
REMARK   59  A    between atoms: _135  and  _136
REMARK   60  A    between atoms: _138  and  _140
REMARK   61  A    between atoms: _140  and  _141
REMARK   62  A    between atoms: _143  and  _145
REMARK   63  A    between atoms: _145  and  _146
REMARK   64  A    between atoms: _145  and  _148
REMARK   65  A    between atoms: _148  and  _149
REMARK   66  A    between atoms: _152  and  _154
REMARK   67  A    between atoms: _154  and  _155
REMARK   68  A    between atoms: _157  and  _159
REMARK   69  A    between atoms: _159  and  _160
REMARK   70  A    between atoms: _162  and  _164
REMARK   71  A    between atoms: _164  and  _165
REMARK   72  A    between atoms: _164  and  _167
REMARK   73  A    between atoms: _167  and  _168
REMARK   74  A    between atoms: _174  and  _176
REMARK   75  A    between atoms: _176  and  _177
REMARK   76  A    between atoms: _176  and  _179
REMARK   77  A    between atoms: _179  and  _180
REMARK   78  A    between atoms: _183  and  _185
REMARK   79  A    between atoms: _185  and  _186
REMARK   80  A    between atoms: _185  and  _188
REMARK   81  A    between atoms: _191  and  _193
REMARK   82  A    between atoms: _193  and  _194
REMARK   83  A    between atoms: _193  and  _196
REMARK   84  A    between atoms: _196  and  _197
REMARK   85  A    between atoms: _201  and  _202
REMARK   86  A    between atoms: _207  and  _209
REMARK   87  A    between atoms: _209  and  _210
REMARK   88  A    between atoms: _209  and  _212
REMARK   89  A    between atoms: _212  and  _213
REMARK   90  A    between atoms: _217  and  _218
REMARK   91  A    between atoms: _223  and  _225
REMARK   92  A    between atoms: _225  and  _226
REMARK   93  A    between atoms: _225  and  _228
REMARK   94  A    between atoms: _231  and  _233
REMARK   95  A    between atoms: _233  and  _234
REMARK   96  A    between atoms: _233  and  _236
REMARK   97  A    between atoms: _236  and  _237
REMARK   98  A    between atoms: _242  and  _244
REMARK   99  A    between atoms: _244  and  _245
REMARK  100  A    between atoms: _244  and  _247
REMARK  101  A    between atoms: _247  and  _248
REMARK  102  A    between atoms: _251  and  _253
REMARK  103  A    between atoms: _253  and  _254
REMARK  104  A    between atoms: _253  and  _256
REMARK  105  A    between atoms: _256  and  _257
REMARK  106  A    between atoms: _260  and  _262
REMARK  107  A    between atoms: _262  and  _263
REMARK  108  A    between atoms: _265  and  _267
REMARK  109  A    between atoms: _267  and  _268
REMARK  110  A    between atoms: _267  and  _270
REMARK  111  A    between atoms: _270  and  _271
REMARK  112  A    between atoms: _271  and  _272
REMARK  113  A    between atoms: _272  and  _273
REMARK  114  A    between atoms: _282  and  _284
REMARK  115  A    between atoms: _284  and  _285
REMARK  116  A    between atoms: _284  and  _287
REMARK  117  A    between atoms: _287  and  _288
REMARK  118  A    between atoms: _293  and  _295
REMARK  119  A    between atoms: _295  and  _296
REMARK  120  A    between atoms: _295  and  _298
REMARK  121  A    between atoms: _298  and  _299
REMARK  122  A    between atoms: _299  and  _300
REMARK  123  A    between atoms: _300  and  _301
REMARK  124  A    between atoms: _310  and  _312
REMARK  125  A    between atoms: _312  and  _313
REMARK  126  A    between atoms: _312  and  _315
REMARK  127  A    between atoms: _315  and  _316
REMARK  128  A    between atoms: _319  and  _321
REMARK  129  A    between atoms: _321  and  _322
REMARK  130  A    between atoms: _321  and  _324
REMARK  131  A    between atoms: _324  and  _325
REMARK  132  A    between atoms: _328  and  _330
REMARK  133  A    between atoms: _330  and  _331
REMARK  134  A    between atoms: _330  and  _333
REMARK  135  A    between atoms: _333  and  _334
REMARK  136  A    between atoms: _337  and  _339
REMARK  137  A    between atoms: _339  and  _340
REMARK  138  A    between atoms: _339  and  _342
REMARK  139  A    between atoms: _342  and  _343
REMARK  140  A    between atoms: _346  and  _348
REMARK  141  A    between atoms: _348  and  _349
REMARK  142  A    between atoms: _351  and  _353
REMARK  143  A    between atoms: _353  and  _354
REMARK  144  A    between atoms: _357  and  _359
REMARK  145  A    between atoms: _359  and  _360
REMARK  146  A    between atoms: _359  and  _362
REMARK  147  A    between atoms: _362  and  _363
REMARK  148  A    between atoms: _366  and  _368
REMARK  149  A    between atoms: _368  and  _369
REMARK  150  A    between atoms: _368  and  _371
REMARK  151  A    between atoms: _371  and  _372
REMARK  152  A    between atoms: _377  and  _379
REMARK  153  A    between atoms: _379  and  _380
REMARK  154  A    between atoms: _379  and  _382
REMARK  155  A    between atoms: _382  and  _383
REMARK  156  A    between atoms: _386  and  _388
REMARK  157  A    between atoms: _388  and  _389
REMARK  158  A    between atoms: _388  and  _391
REMARK  159  A    between atoms: _394  and  _396
REMARK  160  A    between atoms: _396  and  _397
REMARK  161  A    between atoms: _396  and  _399
REMARK  162  A    between atoms: _399  and  _400
REMARK  163  A    between atoms: _400  and  _401
REMARK  164  A    between atoms: _401  and  _402
REMARK  165  A    between atoms: _402  and  _403
REMARK  166  A    between atoms: _407  and  _409
REMARK  167  A    between atoms: _409  and  _410
REMARK  168  A    between atoms: _409  and  _412
REMARK  169  A    between atoms: _412  and  _413
REMARK  170  A    between atoms: _413  and  _414
REMARK  171  A    between atoms: _416  and  _418
REMARK  172  A    between atoms: _418  and  _419
REMARK  173  A    between atoms: _418  and  _421
REMARK  174  A    between atoms: _421  and  _422
REMARK  175  A    between atoms: _425  and  _427
REMARK  176  A    between atoms: _427  and  _428
REMARK  177  A    between atoms: _430  and  _432
REMARK  178  A    between atoms: _432  and  _433
REMARK  179  A    between atoms: _435  and  _437
REMARK  180  A    between atoms: _437  and  _438
REMARK  181  A    between atoms: _437  and  _440
REMARK  182  A    between atoms: _440  and  _441
REMARK  183  A    between atoms: _444  and  _446
REMARK  184  A    between atoms: _446  and  _447
REMARK  185  A    between atoms: _449  and  _451
REMARK  186  A    between atoms: _451  and  _452
REMARK  187  A    between atoms: _454  and  _456
REMARK  188  A    between atoms: _456  and  _457
REMARK  189  A    between atoms: _456  and  _459
REMARK  190  A    between atoms: _459  and  _460
REMARK  191  A    between atoms: _466  and  _468
REMARK  192  A    between atoms: _468  and  _469
REMARK  193  A    between atoms: _468  and  _471
REMARK  194  A    between atoms: _471  and  _472
REMARK  195  A    between atoms: _475  and  _477
REMARK  196  A    between atoms: _477  and  _478
REMARK  197  A    between atoms: _477  and  _480
REMARK  198  A    between atoms: _483  and  _485
REMARK  199  A    between atoms: _485  and  _486
REMARK  200  A    between atoms: _485  and  _488
REMARK  201  A    between atoms: _488  and  _489
REMARK  202  A    between atoms: _492  and  _494
REMARK  203  A    between atoms: _494  and  _495
REMARK  204  A    between atoms: _494  and  _497
REMARK  205  A    between atoms: _497  and  _498
REMARK  206  A    between atoms: _502  and  _503
REMARK  207  A    between atoms: _508  and  _510
REMARK  208  A    between atoms: _510  and  _511
REMARK  209  A    between atoms: _510  and  _513
REMARK  210  A    between atoms: _516  and  _518
REMARK  211  A    between atoms: _518  and  _519
REMARK  212  A    between atoms: _518  and  _521
REMARK  213  A    between atoms: _521  and  _522
REMARK  214  A    between atoms: _527  and  _529
REMARK  215  A    between atoms: _529  and  _530
REMARK  216  A    between atoms: _529  and  _532
REMARK  217  A    between atoms: _532  and  _533
REMARK  218  A    between atoms: _536  and  _538
REMARK  219  A    between atoms: _538  and  _539
REMARK  220  A    between atoms: _541  and  _543
REMARK  221  A    between atoms: _543  and  _544
REMARK  222  A    between atoms: _543  and  _546
REMARK  223  A    between atoms: _546  and  _547
REMARK  224  A    between atoms: _547  and  _548
REMARK  225  A    between atoms: _548  and  _549
REMARK  226  A    between atoms: _558  and  _560
REMARK  227  A    between atoms: _560  and  _561
REMARK  228  A    between atoms: _560  and  _563
REMARK  229  A    between atoms: _563  and  _564
REMARK                            x       y       z     vdW  Elec       q    Type
REMARK                         _______ _______ _______ _____ _____    ______ ____
ROOT
ATOM      1  CA  ILE A   6      13.386  28.261  11.351  0.00  0.00    +0.149 C 
ENDROOT
BRANCH   1   2
ATOM      2  C   ILE A   6      13.667  29.751  11.392  0.00  0.00    +0.241 C 
ATOM      3  N   ILE A   7      12.822  30.527  12.064  0.00  0.00    -0.297 N 
ATOM      4  H   ILE A   7      11.939  30.114  12.426  0.00  0.00    +0.150 HD
ATOM      5  O   ILE A   6      14.685  30.204  10.804  0.00  0.00    -0.273 OA
BRANCH   3   6
ATOM      6  CA  ILE A   7      13.093  31.941  12.310  0.00  0.00    +0.149 C 
BRANCH   6   7
ATOM      7  C   ILE A   7      13.747  32.008  13.680  0.00  0.00    +0.241 C 
ATOM      8  O   ILE A   7      13.091  31.678  14.682  0.00  0.00    -0.273 OA
ATOM      9  N   GLY A   8      15.049  32.348  13.731  0.00  0.00    -0.295 N 
ATOM     10  H   GLY A   8      15.557  32.585  12.855  0.00  0.00    +0.150 HD
BRANCH   9  11
ATOM     11  CA  GLY A   8      15.737  32.384  14.989  0.00  0.00    +0.176 C 
BRANCH  11  12
ATOM     12  C   GLY A   8      15.836  33.768  15.609  0.00  0.00    +0.243 C 
ATOM     13  N   ARG A   9      16.543  33.876  16.733  0.00  0.00    -0.297 N 
ATOM     14  H   ARG A   9      17.141  33.083  17.040  0.00  0.00    +0.150 HD
ATOM     15  O   GLY A   8      15.268  34.737  15.079  0.00  0.00    -0.273 OA
BRANCH  13  16
ATOM     16  CA  ARG A   9      16.491  35.092  17.542  0.00  0.00    +0.149 C 
BRANCH  16  17
ATOM     17  C   ARG A   9      17.007  36.260  16.728  0.00  0.00    +0.241 C 
ATOM     18  O   ARG A   9      16.567  37.397  16.990  0.00  0.00    -0.273 OA
ATOM     19  N   ASN A  10      17.926  36.078  15.779  0.00  0.00    -0.298 N 
ATOM     20  H   ASN A  10      18.260  35.122  15.542  0.00  0.00    +0.150 HD
BRANCH  19  21
ATOM     21  CA  ASN A  10      18.463  37.264  15.067  0.00  0.00    +0.146 C 
BRANCH  21  22
ATOM     22  C   ASN A  10      17.391  38.033  14.331  0.00  0.00    +0.227 C 
ATOM     23  O   ASN A  10      17.557  39.234  14.126  0.00  0.00    -0.286 OA
ENDBRANCH  21  22
BRANCH  21  24
ATOM     24  CB  ASN A  10      19.575  36.848  14.097  0.00  0.00    +0.112 C 
BRANCH  24  25
ATOM     25  CG  ASN A  10      19.079  36.102  12.861  0.00  0.00    +0.222 C 
ATOM     26  OD1 ASN A  10      18.366  35.105  12.988  0.00  0.00    -0.275 OA
ATOM     27  ND2 ASN A  10      19.479  36.607  11.679  0.00  0.00    -0.329 N 
ATOM     28 HD21 ASN A  10      20.082  37.454  11.653  0.00  0.00    +0.145 HD
ATOM     29 HD22 ASN A  10      19.185  36.150  10.792  0.00  0.00    +0.145 HD
ENDBRANCH  24  25
ENDBRANCH  21  24
ENDBRANCH  19  21
ENDBRANCH  16  17
BRANCH  16  30
ATOM     30  CB  ARG A   9      17.294  34.943  18.830  0.00  0.00    +0.033 C 
BRANCH  30  31
ATOM     31  CG  ARG A   9      16.666  33.909  19.774  0.00  0.00    +0.045 C 
BRANCH  31  32
ATOM     32  CD  ARG A   9      17.382  33.923  21.131  0.00  0.00    +0.174 C 
BRANCH  32  33
ATOM     33  NE  ARG A   9      18.778  33.446  20.965  0.00  0.00    -0.265 N 
ATOM     34  CZ  ARG A   9      19.850  34.245  20.935  0.00  0.00    +0.342 C 
ATOM     35  NH2 ARG A   9      19.726  35.578  21.081  0.00  0.00    -0.292 N 
ATOM     36 HH21 ARG A   9      18.786  36.001  21.220  0.00  0.00    +0.255 HD
ATOM     37 HH22 ARG A   9      20.570  36.185  21.055  0.00  0.00    +0.255 HD
ATOM     38  NH1 ARG A   9      21.058  33.684  20.766  0.00  0.00    -0.292 N 
ATOM     39 HH11 ARG A   9      21.909  34.281  20.739  0.00  0.00    +0.255 HD
ATOM     40 HH12 ARG A   9      21.142  32.653  20.662  0.00  0.00    +0.255 HD
ATOM     41  HE  ARG A   9      18.933  32.422  20.865  0.00  0.00    +0.259 HD
ENDBRANCH  32  33
ENDBRANCH  31  32
ENDBRANCH  30  31
ENDBRANCH  16  30
ENDBRANCH  13  16
ENDBRANCH  11  12
ENDBRANCH   9  11
ENDBRANCH   6   7
BRANCH   6  42
ATOM     42  CB  ILE A   7      11.828  32.816  12.265  0.00  0.00    +0.027 C 
ATOM     43  CG2 ILE A   7      12.192  34.257  12.548  0.00  0.00    +0.002 C 
BRANCH  42  44
ATOM     44  CG1 ILE A   7      11.077  32.755  10.931  0.00  0.00    +0.002 C 
ATOM     45  CD1 ILE A   7      11.997  32.950   9.706  0.00  0.00    +0.000 C 
ENDBRANCH  42  44
ENDBRANCH   6  42
ENDBRANCH   3   6
ENDBRANCH   1   2
BRANCH   1  48
ATOM     46  C   ASN A   5      12.318  27.103   9.494  0.00  0.00    +0.241 C 
ATOM     47  O   ASN A   5      11.220  27.012  10.068  0.00  0.00    -0.273 OA
ATOM     48  N   ILE A   6      13.361  27.733  10.002  0.00  0.00    -0.297 N 
ATOM     49  H   ILE A   6      14.204  27.856   9.406  0.00  0.00    +0.150 HD
BRANCH  46  50
ATOM     50  CA  ASN A   5      12.465  26.492   8.105  0.00  0.00    +0.158 C 
BRANCH  50  53
ATOM     51  C   VAL A   4      12.818  24.177   8.716  0.00  0.00    +0.241 C 
ATOM     52  O   VAL A   4      13.973  24.457   9.076  0.00  0.00    -0.273 OA
ATOM     53  N   ASN A   5      12.023  25.092   8.170  0.00  0.00    -0.297 N 
ATOM     54  H   ASN A   5      11.094  24.819   7.791  0.00  0.00    +0.150 HD
BRANCH  51  55
ATOM     55  CA  VAL A   4      12.306  22.774   8.955  0.00  0.00    +0.149 C 
BRANCH  55  57
ATOM     56  C   PRO A   3      13.225  20.669   8.121  0.00  0.00    +0.241 C 
ATOM     57  N   VAL A   4      13.406  21.847   8.688  0.00  0.00    -0.297 N 
ATOM     58  H   VAL A   4      14.371  22.128   8.956  0.00  0.00    +0.150 HD
ATOM     59  O   PRO A   3      12.152  20.241   7.681  0.00  0.00    -0.273 OA
BRANCH  56  65
ATOM     60  C   THR A   2      16.172  21.252   7.330  0.00  0.00    +0.246 C 
ATOM     61  N   PRO A   3      15.686  20.434   8.241  0.00  0.00    -0.272 N 
ATOM     62  CD  PRO A   3      16.332  20.051   9.510  0.00  0.00    +0.094 C 
ATOM     63  CG  PRO A   3      15.311  19.183  10.196  0.00  0.00    +0.024 C 
ATOM     64  CB  PRO A   3      14.364  18.702   9.152  0.00  0.00    +0.031 C 
ATOM     65  CA  PRO A   3      14.428  19.731   8.012  0.00  0.00    +0.152 C 
ATOM     66  O   THR A   2      15.613  21.442   6.231  0.00  0.00    -0.273 OA
BRANCH  60  67
ATOM     67  CA  THR A   2      17.497  21.975   7.594  0.00  0.00    +0.176 C 
BRANCH  67  70
ATOM     68  C   PRO A   1      18.939  20.993   5.892  0.00  0.00    +0.239 C 
ATOM     69  O   PRO A   1      19.119  19.948   6.540  0.00  0.00    -0.274 OA
ATOM     70  N   THR A   2      18.234  22.033   6.327  0.00  0.00    -0.295 N 
ATOM     71  H   THR A   2      18.205  22.903   5.759  0.00  0.00    +0.150 HD
BRANCH  68  73
ATOM     72  N   PRO A   1      20.430  22.247   4.383  0.00  0.00    -0.210 NA
ATOM     73  CA  PRO A   1      19.518  21.119   4.497  0.00  0.00    +0.149 C 
ATOM     74  CB  PRO A   1      20.378  19.887   4.182  0.00  0.00    +0.028 C 
ATOM     75  CG  PRO A   1      21.742  20.347   4.632  0.00  0.00    +0.021 C 
ATOM     76  CD  PRO A   1      21.836  21.827   4.375  0.00  0.00    +0.089 C 
ENDBRANCH  68  73
ENDBRANCH  67  70
BRANCH  67  77
ATOM     77  CB  THR A   2      17.228  23.365   8.172  0.00  0.00    +0.137 C 
ATOM     78  CG2 THR A   2      16.511  24.251   7.160  0.00  0.00    +0.034 C 
BRANCH  77  79
ATOM     79  OG1 THR A   2      16.365  23.239   9.304  0.00  0.00    -0.382 OA
ATOM     80  HG1 THR A   2      15.512  22.823   9.022  0.00  0.00    +0.210 HD
ENDBRANCH  77  79
ENDBRANCH  67  77
ENDBRANCH  60  67
ENDBRANCH  56  65
ENDBRANCH  55  57
BRANCH  55  81
ATOM     81  CB  VAL A   4      11.819  22.632  10.410  0.00  0.00    +0.027 C 
ATOM     82  CG2 VAL A   4      10.802  23.704  10.784  0.00  0.00    +0.002 C 
ATOM     83  CG1 VAL A   4      11.215  21.255  10.670  0.00  0.00    +0.002 C 
ENDBRANCH  55  81
ENDBRANCH  51  55
ENDBRANCH  50  53
BRANCH  50  84
ATOM     84  CB  ASN A   5      11.638  27.306   7.128  0.00  0.00    +0.114 C 
BRANCH  84  85
ATOM     85  CG  ASN A   5      11.753  26.823   5.681  0.00  0.00    +0.222 C 
ATOM     86  OD1 ASN A   5      12.868  26.520   5.256  0.00  0.00    -0.275 OA
ATOM     87  ND2 ASN A   5      10.584  26.772   4.993  0.00  0.00    -0.329 N 
ATOM     88 HD21 ASN A   5       9.696  27.054   5.455  0.00  0.00    +0.145 HD
ATOM     89 HD22 ASN A   5      10.576  26.451   4.004  0.00  0.00    +0.145 HD
ENDBRANCH  84  85
ENDBRANCH  50  84
ENDBRANCH  46  50
ENDBRANCH   1  48
BRANCH   1  90
ATOM     90  CB  ILE A   6      14.499  27.513  12.118  0.00  0.00    +0.027 C 
ATOM     91  CG2 ILE A   6      14.887  28.301  13.354  0.00  0.00    +0.002 C 
BRANCH  90  92
ATOM     92  CG1 ILE A   6      14.150  26.060  12.466  0.00  0.00    +0.002 C 
ATOM     93  CD1 ILE A   6      15.370  25.162  12.520  0.00  0.00    +0.000 C 
ENDBRANCH  90  92
ENDBRANCH   1  90
TORSDOF 33
REMARK  Name = ../refined-set-2016/4hdb/4hdb_pocket.pdb
REMARK  229 active torsions:
REMARK  status: ('A' for Active; 'I' for Inactive)
REMARK    1  A    between atoms: _1  and  _3
REMARK    2  A    between atoms: _3  and  _4
REMARK    3  A    between atoms: _3  and  _6
REMARK    4  A    between atoms: _6  and  _7
REMARK    5  A    between atoms: _7  and  _8
REMARK    6  A    between atoms: _8  and  _9
REMARK    7  A    between atoms: _18  and  _20
REMARK    8  A    between atoms: _20  and  _21
REMARK    9  A    between atoms: _20  and  _23
REMARK   10  A    between atoms: _23  and  _24
REMARK   11  A    between atoms: _27  and  _29
REMARK   12  A    between atoms: _29  and  _30
REMARK   13  A    between atoms: _29  and  _32
REMARK   14  A    between atoms: _32  and  _33
REMARK   15  A    between atoms: _36  and  _38
REMARK   16  A    between atoms: _38  and  _39
REMARK   17  A    between atoms: _38  and  _41
REMARK   18  A    between atoms: _41  and  _42
REMARK   19  A    between atoms: _45  and  _47
REMARK   20  A    between atoms: _47  and  _48
REMARK   21  A    between atoms: _47  and  _50
REMARK   22  A    between atoms: _50  and  _51
REMARK   23  A    between atoms: _54  and  _56
REMARK   24  A    between atoms: _56  and  _57
REMARK   25  A    between atoms: _59  and  _61
REMARK   26  A    between atoms: _61  and  _62
REMARK   27  A    between atoms: _65  and  _67
REMARK   28  A    between atoms: _67  and  _68
REMARK   29  A    between atoms: _67  and  _70
REMARK   30  A    between atoms: _70  and  _71
REMARK   31  A    between atoms: _74  and  _76
REMARK   32  A    between atoms: _76  and  _77
REMARK   33  A    between atoms: _76  and  _79
REMARK   34  A    between atoms: _79  and  _80
REMARK   35  A    between atoms: _85  and  _87
REMARK   36  A    between atoms: _87  and  _88
REMARK   37  A    between atoms: _87  and  _90
REMARK   38  A    between atoms: _90  and  _91
REMARK   39  A    between atoms: _94  and  _96
REMARK   40  A    between atoms: _96  and  _97
REMARK   41  A    between atoms: _96  and  _99
REMARK   42  A    between atoms: _102  and  _104
REMARK   43  A    between atoms: _104  and  _105
REMARK   44  A    between atoms: _104  and  _107
REMARK   45  A    between atoms: _107  and  _108
REMARK   46  A    between atoms: _108  and  _109
REMARK   47  A    between atoms: _109  and  _110
REMARK   48  A    between atoms: _110  and  _111
REMARK   49  A    between atoms: _115  and  _117
REMARK   50  A    between atoms: _117  and  _118
REMARK   51  A    between atoms: _117  and  _120
REMARK   52  A    between atoms: _120  and  _121
REMARK   53  A    between atoms: _121  and  _122
REMARK   54  A    between atoms: _124  and  _126
REMARK   55  A    between atoms: _126  and  _127
REMARK   56  A    between atoms: _126  and  _129
REMARK   57  A    between atoms: _129  and  _130
REMARK   58  A    between atoms: _133  and  _135
REMARK   59  A    between atoms: _135  and  _136
REMARK   60  A    between atoms: _138  and  _140
REMARK   61  A    between atoms: _140  and  _141
REMARK   62  A    between atoms: _143  and  _145
REMARK   63  A    between atoms: _145  and  _146
REMARK   64  A    between atoms: _145  and  _148
REMARK   65  A    between atoms: _148  and  _149
REMARK   66  A    between atoms: _152  and  _154
REMARK   67  A    between atoms: _154  and  _155
REMARK   68  A    between atoms: _157  and  _159
REMARK   69  A    between atoms: _159  and  _160
REMARK   70  A    between atoms: _162  and  _164
REMARK   71  A    between atoms: _164  and  _165
REMARK   72  A    between atoms: _164  and  _167
REMARK   73  A    between atoms: _167  and  _168
REMARK   74  A    between atoms: _174  and  _176
REMARK   75  A    between atoms: _176  and  _177
REMARK   76  A    between atoms: _176  and  _179
REMARK   77  A    between atoms: _179  and  _180
REMARK   78  A    between atoms: _183  and  _185
REMARK   79  A    between atoms: _185  and  _186
REMARK   80  A    between atoms: _185  and  _188
REMARK   81  A    between atoms: _191  and  _193
REMARK   82  A    between atoms: _193  and  _194
REMARK   83  A    between atoms: _193  and  _196
REMARK   84  A    between atoms: _196  and  _197
REMARK   85  A    between atoms: _201  and  _202
REMARK   86  A    between atoms: _207  and  _209
REMARK   87  A    between atoms: _209  and  _210
REMARK   88  A    between atoms: _209  and  _212
REMARK   89  A    between atoms: _212  and  _213
REMARK   90  A    between atoms: _217  and  _218
REMARK   91  A    between atoms: _223  and  _225
REMARK   92  A    between atoms: _225  and  _226
REMARK   93  A    between atoms: _225  and  _228
REMARK   94  A    between atoms: _231  and  _233
REMARK   95  A    between atoms: _233  and  _234
REMARK   96  A    between atoms: _233  and  _236
REMARK   97  A    between atoms: _236  and  _237
REMARK   98  A    between atoms: _242  and  _244
REMARK   99  A    between atoms: _244  and  _245
REMARK  100  A    between atoms: _244  and  _247
REMARK  101  A    between atoms: _247  and  _248
REMARK  102  A    between atoms: _251  and  _253
REMARK  103  A    between atoms: _253  and  _254
REMARK  104  A    between atoms: _253  and  _256
REMARK  105  A    between atoms: _256  and  _257
REMARK  106  A    between atoms: _260  and  _262
REMARK  107  A    between atoms: _262  and  _263
REMARK  108  A    between atoms: _265  and  _267
REMARK  109  A    between atoms: _267  and  _268
REMARK  110  A    between atoms: _267  and  _270
REMARK  111  A    between atoms: _270  and  _271
REMARK  112  A    between atoms: _271  and  _272
REMARK  113  A    between atoms: _272  and  _273
REMARK  114  A    between atoms: _282  and  _284
REMARK  115  A    between atoms: _284  and  _285
REMARK  116  A    between atoms: _284  and  _287
REMARK  117  A    between atoms: _287  and  _288
REMARK  118  A    between atoms: _293  and  _295
REMARK  119  A    between atoms: _295  and  _296
REMARK  120  A    between atoms: _295  and  _298
REMARK  121  A    between atoms: _298  and  _299
REMARK  122  A    between atoms: _299  and  _300
REMARK  123  A    between atoms: _300  and  _301
REMARK  124  A    between atoms: _310  and  _312
REMARK  125  A    between atoms: _312  and  _313
REMARK  126  A    between atoms: _312  and  _315
REMARK  127  A    between atoms: _315  and  _316
REMARK  128  A    between atoms: _319  and  _321
REMARK  129  A    between atoms: _321  and  _322
REMARK  130  A    between atoms: _321  and  _324
REMARK  131  A    between atoms: _324  and  _325
REMARK  132  A    between atoms: _328  and  _330
REMARK  133  A    between atoms: _330  and  _331
REMARK  134  A    between atoms: _330  and  _333
REMARK  135  A    between atoms: _333  and  _334
REMARK  136  A    between atoms: _337  and  _339
REMARK  137  A    between atoms: _339  and  _340
REMARK  138  A    between atoms: _339  and  _342
REMARK  139  A    between atoms: _342  and  _343
REMARK  140  A    between atoms: _346  and  _348
REMARK  141  A    between atoms: _348  and  _349
REMARK  142  A    between atoms: _351  and  _353
REMARK  143  A    between atoms: _353  and  _354
REMARK  144  A    between atoms: _357  and  _359
REMARK  145  A    between atoms: _359  and  _360
REMARK  146  A    between atoms: _359  and  _362
REMARK  147  A    between atoms: _362  and  _363
REMARK  148  A    between atoms: _366  and  _368
REMARK  149  A    between atoms: _368  and  _369
REMARK  150  A    between atoms: _368  and  _371
REMARK  151  A    between atoms: _371  and  _372
REMARK  152  A    between atoms: _377  and  _379
REMARK  153  A    between atoms: _379  and  _380
REMARK  154  A    between atoms: _379  and  _382
REMARK  155  A    between atoms: _382  and  _383
REMARK  156  A    between atoms: _386  and  _388
REMARK  157  A    between atoms: _388  and  _389
REMARK  158  A    between atoms: _388  and  _391
REMARK  159  A    between atoms: _394  and  _396
REMARK  160  A    between atoms: _396  and  _397
REMARK  161  A    between atoms: _396  and  _399
REMARK  162  A    between atoms: _399  and  _400
REMARK  163  A    between atoms: _400  and  _401
REMARK  164  A    between atoms: _401  and  _402
REMARK  165  A    between atoms: _402  and  _403
REMARK  166  A    between atoms: _407  and  _409
REMARK  167  A    between atoms: _409  and  _410
REMARK  168  A    between atoms: _409  and  _412
REMARK  169  A    between atoms: _412  and  _413
REMARK  170  A    between atoms: _413  and  _414
REMARK  171  A    between atoms: _416  and  _418
REMARK  172  A    between atoms: _418  and  _419
REMARK  173  A    between atoms: _418  and  _421
REMARK  174  A    between atoms: _421  and  _422
REMARK  175  A    between atoms: _425  and  _427
REMARK  176  A    between atoms: _427  and  _428
REMARK  177  A    between atoms: _430  and  _432
REMARK  178  A    between atoms: _432  and  _433
REMARK  179  A    between atoms: _435  and  _437
REMARK  180  A    between atoms: _437  and  _438
REMARK  181  A    between atoms: _437  and  _440
REMARK  182  A    between atoms: _440  and  _441
REMARK  183  A    between atoms: _444  and  _446
REMARK  184  A    between atoms: _446  and  _447
REMARK  185  A    between atoms: _449  and  _451
REMARK  186  A    between atoms: _451  and  _452
REMARK  187  A    between atoms: _454  and  _456
REMARK  188  A    between atoms: _456  and  _457
REMARK  189  A    between atoms: _456  and  _459
REMARK  190  A    between atoms: _459  and  _460
REMARK  191  A    between atoms: _466  and  _468
REMARK  192  A    between atoms: _468  and  _469
REMARK  193  A    between atoms: _468  and  _471
REMARK  194  A    between atoms: _471  and  _472
REMARK  195  A    between atoms: _475  and  _477
REMARK  196  A    between atoms: _477  and  _478
REMARK  197  A    between atoms: _477  and  _480
REMARK  198  A    between atoms: _483  and  _485
REMARK  199  A    between atoms: _485  and  _486
REMARK  200  A    between atoms: _485  and  _488
REMARK  201  A    between atoms: _488  and  _489
REMARK  202  A    between atoms: _492  and  _494
REMARK  203  A    between atoms: _494  and  _495
REMARK  204  A    between atoms: _494  and  _497
REMARK  205  A    between atoms: _497  and  _498
REMARK  206  A    between atoms: _502  and  _503
REMARK  207  A    between atoms: _508  and  _510
REMARK  208  A    between atoms: _510  and  _511
REMARK  209  A    between atoms: _510  and  _513
REMARK  210  A    between atoms: _516  and  _518
REMARK  211  A    between atoms: _518  and  _519
REMARK  212  A    between atoms: _518  and  _521
REMARK  213  A    between atoms: _521  and  _522
REMARK  214  A    between atoms: _527  and  _529
REMARK  215  A    between atoms: _529  and  _530
REMARK  216  A    between atoms: _529  and  _532
REMARK  217  A    between atoms: _532  and  _533
REMARK  218  A    between atoms: _536  and  _538
REMARK  219  A    between atoms: _538  and  _539
REMARK  220  A    between atoms: _541  and  _543
REMARK  221  A    between atoms: _543  and  _544
REMARK  222  A    between atoms: _543  and  _546
REMARK  223  A    between atoms: _546  and  _547
REMARK  224  A    between atoms: _547  and  _548
REMARK  225  A    between atoms: _548  and  _549
REMARK  226  A    between atoms: _558  and  _560
REMARK  227  A    between atoms: _560  and  _561
REMARK  228  A    between atoms: _560  and  _563
REMARK  229  A    between atoms: _563  and  _564
REMARK                            x       y       z     vdW  Elec       q    Type
REMARK                         _______ _______ _______ _____ _____    ______ ____
ROOT
ATOM      1  NE  ARG A   1      23.103  30.412  22.559  0.00  0.00    -0.265 N 
ATOM      2  CZ  ARG A   1      24.282  29.776  22.459  0.00  0.00    +0.342 C 
ATOM      3  NH2 ARG A   1      24.909  29.325  23.540  0.00  0.00    -0.292 N 
ATOM      4 HH21 ARG A   1      24.488  29.462  24.481  0.00  0.00    +0.255 HD
ATOM      5 HH22 ARG A   1      25.821  28.835  23.445  0.00  0.00    +0.255 HD
ATOM      6  NH1 ARG A   1      24.882  29.566  21.291  0.00  0.00    -0.292 N 
ATOM      7 HH11 ARG A   1      25.795  29.069  21.257  0.00  0.00    +0.255 HD
ATOM      8 HH12 ARG A   1      24.438  29.899  20.411  0.00  0.00    +0.255 HD
ATOM      9  HE  ARG A   1      22.679  30.739  21.667  0.00  0.00    +0.259 HD
ENDROOT
BRANCH   1  10
ATOM     10  CD  ARG A   1      22.348  30.697  23.775  0.00  0.00    +0.174 C 
BRANCH  10  11
ATOM     11  CG  ARG A   1      21.312  31.792  23.543  0.00  0.00    +0.045 C 
BRANCH  11  12
ATOM     12  CB  ARG A   1      20.521  32.020  24.840  0.00  0.00    +0.029 C 
BRANCH  12  13
ATOM     13  CA  ARG A   1      19.523  33.167  24.676  0.00  0.00    +0.133 C 
BRANCH  13  14
ATOM     14  N   ARG A   1      20.231  34.444  24.572  0.00  0.00    -0.239 NA
ATOM     15  H   ARG A   1      21.269  34.474  24.637  0.00  0.00    +0.142 HD
ENDBRANCH  13  14
BRANCH  13  16
ATOM     16  C   ARG A   1      18.551  33.195  25.832  0.00  0.00    +0.224 C 
ATOM     17  O   ARG A   1      18.965  33.681  26.890  0.00  0.00    -0.287 OA
ENDBRANCH  13  16
ENDBRANCH  12  13
ENDBRANCH  11  12
ENDBRANCH  10  11
ENDBRANCH   1  10
TORSDOF 6
REMARK  Name = ../refined-set-2016/4hdb/4hdb_pocket.pdb
REMARK  229 active torsions:
REMARK  status: ('A' for Active; 'I' for Inactive)
REMARK    1  A    between atoms: _1  and  _3
REMARK    2  A    between atoms: _3  and  _4
REMARK    3  A    between atoms: _3  and  _6
REMARK    4  A    between atoms: _6  and  _7
REMARK    5  A    between atoms: _7  and  _8
REMARK    6  A    between atoms: _8  and  _9
REMARK    7  A    between atoms: _18  and  _20
REMARK    8  A    between atoms: _20  and  _21
REMARK    9  A    between atoms: _20  and  _23
REMARK   10  A    between atoms: _23  and  _24
REMARK   11  A    between atoms: _27  and  _29
REMARK   12  A    between atoms: _29  and  _30
REMARK   13  A    between atoms: _29  and  _32
REMARK   14  A    between atoms: _32  and  _33
REMARK   15  A    between atoms: _36  and  _38
REMARK   16  A    between atoms: _38  and  _39
REMARK   17  A    between atoms: _38  and  _41
REMARK   18  A    between atoms: _41  and  _42
REMARK   19  A    between atoms: _45  and  _47
REMARK   20  A    between atoms: _47  and  _48
REMARK   21  A    between atoms: _47  and  _50
REMARK   22  A    between atoms: _50  and  _51
REMARK   23  A    between atoms: _54  and  _56
REMARK   24  A    between atoms: _56  and  _57
REMARK   25  A    between atoms: _59  and  _61
REMARK   26  A    between atoms: _61  and  _62
REMARK   27  A    between atoms: _65  and  _67
REMARK   28  A    between atoms: _67  and  _68
REMARK   29  A    between atoms: _67  and  _70
REMARK   30  A    between atoms: _70  and  _71
REMARK   31  A    between atoms: _74  and  _76
REMARK   32  A    between atoms: _76  and  _77
REMARK   33  A    between atoms: _76  and  _79
REMARK   34  A    between atoms: _79  and  _80
REMARK   35  A    between atoms: _85  and  _87
REMARK   36  A    between atoms: _87  and  _88
REMARK   37  A    between atoms: _87  and  _90
REMARK   38  A    between atoms: _90  and  _91
REMARK   39  A    between atoms: _94  and  _96
REMARK   40  A    between atoms: _96  and  _97
REMARK   41  A    between atoms: _96  and  _99
REMARK   42  A    between atoms: _102  and  _104
REMARK   43  A    between atoms: _104  and  _105
REMARK   44  A    between atoms: _104  and  _107
REMARK   45  A    between atoms: _107  and  _108
REMARK   46  A    between atoms: _108  and  _109
REMARK   47  A    between atoms: _109  and  _110
REMARK   48  A    between atoms: _110  and  _111
REMARK   49  A    between atoms: _115  and  _117
REMARK   50  A    between atoms: _117  and  _118
REMARK   51  A    between atoms: _117  and  _120
REMARK   52  A    between atoms: _120  and  _121
REMARK   53  A    between atoms: _121  and  _122
REMARK   54  A    between atoms: _124  and  _126
REMARK   55  A    between atoms: _126  and  _127
REMARK   56  A    between atoms: _126  and  _129
REMARK   57  A    between atoms: _129  and  _130
REMARK   58  A    between atoms: _133  and  _135
REMARK   59  A    between atoms: _135  and  _136
REMARK   60  A    between atoms: _138  and  _140
REMARK   61  A    between atoms: _140  and  _141
REMARK   62  A    between atoms: _143  and  _145
REMARK   63  A    between atoms: _145  and  _146
REMARK   64  A    between atoms: _145  and  _148
REMARK   65  A    between atoms: _148  and  _149
REMARK   66  A    between atoms: _152  and  _154
REMARK   67  A    between atoms: _154  and  _155
REMARK   68  A    between atoms: _157  and  _159
REMARK   69  A    between atoms: _159  and  _160
REMARK   70  A    between atoms: _162  and  _164
REMARK   71  A    between atoms: _164  and  _165
REMARK   72  A    between atoms: _164  and  _167
REMARK   73  A    between atoms: _167  and  _168
REMARK   74  A    between atoms: _174  and  _176
REMARK   75  A    between atoms: _176  and  _177
REMARK   76  A    between atoms: _176  and  _179
REMARK   77  A    between atoms: _179  and  _180
REMARK   78  A    between atoms: _183  and  _185
REMARK   79  A    between atoms: _185  and  _186
REMARK   80  A    between atoms: _185  and  _188
REMARK   81  A    between atoms: _191  and  _193
REMARK   82  A    between atoms: _193  and  _194
REMARK   83  A    between atoms: _193  and  _196
REMARK   84  A    between atoms: _196  and  _197
REMARK   85  A    between atoms: _201  and  _202
REMARK   86  A    between atoms: _207  and  _209
REMARK   87  A    between atoms: _209  and  _210
REMARK   88  A    between atoms: _209  and  _212
REMARK   89  A    between atoms: _212  and  _213
REMARK   90  A    between atoms: _217  and  _218
REMARK   91  A    between atoms: _223  and  _225
REMARK   92  A    between atoms: _225  and  _226
REMARK   93  A    between atoms: _225  and  _228
REMARK   94  A    between atoms: _231  and  _233
REMARK   95  A    between atoms: _233  and  _234
REMARK   96  A    between atoms: _233  and  _236
REMARK   97  A    between atoms: _236  and  _237
REMARK   98  A    between atoms: _242  and  _244
REMARK   99  A    between atoms: _244  and  _245
REMARK  100  A    between atoms: _244  and  _247
REMARK  101  A    between atoms: _247  and  _248
REMARK  102  A    between atoms: _251  and  _253
REMARK  103  A    between atoms: _253  and  _254
REMARK  104  A    between atoms: _253  and  _256
REMARK  105  A    between atoms: _256  and  _257
REMARK  106  A    between atoms: _260  and  _262
REMARK  107  A    between atoms: _262  and  _263
REMARK  108  A    between atoms: _265  and  _267
REMARK  109  A    between atoms: _267  and  _268
REMARK  110  A    between atoms: _267  and  _270
REMARK  111  A    between atoms: _270  and  _271
REMARK  112  A    between atoms: _271  and  _272
REMARK  113  A    between atoms: _272  and  _273
REMARK  114  A    between atoms: _282  and  _284
REMARK  115  A    between atoms: _284  and  _285
REMARK  116  A    between atoms: _284  and  _287
REMARK  117  A    between atoms: _287  and  _288
REMARK  118  A    between atoms: _293  and  _295
REMARK  119  A    between atoms: _295  and  _296
REMARK  120  A    between atoms: _295  and  _298
REMARK  121  A    between atoms: _298  and  _299
REMARK  122  A    between atoms: _299  and  _300
REMARK  123  A    between atoms: _300  and  _301
REMARK  124  A    between atoms: _310  and  _312
REMARK  125  A    between atoms: _312  and  _313
REMARK  126  A    between atoms: _312  and  _315
REMARK  127  A    between atoms: _315  and  _316
REMARK  128  A    between atoms: _319  and  _321
REMARK  129  A    between atoms: _321  and  _322
REMARK  130  A    between atoms: _321  and  _324
REMARK  131  A    between atoms: _324  and  _325
REMARK  132  A    between atoms: _328  and  _330
REMARK  133  A    between atoms: _330  and  _331
REMARK  134  A    between atoms: _330  and  _333
REMARK  135  A    between atoms: _333  and  _334
REMARK  136  A    between atoms: _337  and  _339
REMARK  137  A    between atoms: _339  and  _340
REMARK  138  A    between atoms: _339  and  _342
REMARK  139  A    between atoms: _342  and  _343
REMARK  140  A    between atoms: _346  and  _348
REMARK  141  A    between atoms: _348  and  _349
REMARK  142  A    between atoms: _351  and  _353
REMARK  143  A    between atoms: _353  and  _354
REMARK  144  A    between atoms: _357  and  _359
REMARK  145  A    between atoms: _359  and  _360
REMARK  146  A    between atoms: _359  and  _362
REMARK  147  A    between atoms: _362  and  _363
REMARK  148  A    between atoms: _366  and  _368
REMARK  149  A    between atoms: _368  and  _369
REMARK  150  A    between atoms: _368  and  _371
REMARK  151  A    between atoms: _371  and  _372
REMARK  152  A    between atoms: _377  and  _379
REMARK  153  A    between atoms: _379  and  _380
REMARK  154  A    between atoms: _379  and  _382
REMARK  155  A    between atoms: _382  and  _383
REMARK  156  A    between atoms: _386  and  _388
REMARK  157  A    between atoms: _388  and  _389
REMARK  158  A    between atoms: _388  and  _391
REMARK  159  A    between atoms: _394  and  _396
REMARK  160  A    between atoms: _396  and  _397
REMARK  161  A    between atoms: _396  and  _399
REMARK  162  A    between atoms: _399  and  _400
REMARK  163  A    between atoms: _400  and  _401
REMARK  164  A    between atoms: _401  and  _402
REMARK  165  A    between atoms: _402  and  _403
REMARK  166  A    between atoms: _407  and  _409
REMARK  167  A    between atoms: _409  and  _410
REMARK  168  A    between atoms: _409  and  _412
REMARK  169  A    between atoms: _412  and  _413
REMARK  170  A    between atoms: _413  and  _414
REMARK  171  A    between atoms: _416  and  _418
REMARK  172  A    between atoms: _418  and  _419
REMARK  173  A    between atoms: _418  and  _421
REMARK  174  A    between atoms: _421  and  _422
REMARK  175  A    between atoms: _425  and  _427
REMARK  176  A    between atoms: _427  and  _428
REMARK  177  A    between atoms: _430  and  _432
REMARK  178  A    between atoms: _432  and  _433
REMARK  179  A    between atoms: _435  and  _437
REMARK  180  A    between atoms: _437  and  _438
REMARK  181  A    between atoms: _437  and  _440
REMARK  182  A    between atoms: _440  and  _441
REMARK  183  A    between atoms: _444  and  _446
REMARK  184  A    between atoms: _446  and  _447
REMARK  185  A    between atoms: _449  and  _451
REMARK  186  A    between atoms: _451  and  _452
REMARK  187  A    between atoms: _454  and  _456
REMARK  188  A    between atoms: _456  and  _457
REMARK  189  A    between atoms: _456  and  _459
REMARK  190  A    between atoms: _459  and  _460
REMARK  191  A    between atoms: _466  and  _468
REMARK  192  A    between atoms: _468  and  _469
REMARK  193  A    between atoms: _468  and  _471
REMARK  194  A    between atoms: _471  and  _472
REMARK  195  A    between atoms: _475  and  _477
REMARK  196  A    between atoms: _477  and  _478
REMARK  197  A    between atoms: _477  and  _480
REMARK  198  A    between atoms: _483  and  _485
REMARK  199  A    between atoms: _485  and  _486
REMARK  200  A    between atoms: _485  and  _488
REMARK  201  A    between atoms: _488  and  _489
REMARK  202  A    between atoms: _492  and  _494
REMARK  203  A    between atoms: _494  and  _495
REMARK  204  A    between atoms: _494  and  _497
REMARK  205  A    between atoms: _497  and  _498
REMARK  206  A    between atoms: _502  and  _503
REMARK  207  A    between atoms: _508  and  _510
REMARK  208  A    between atoms: _510  and  _511
REMARK  209  A    between atoms: _510  and  _513
REMARK  210  A    between atoms: _516  and  _518
REMARK  211  A    between atoms: _518  and  _519
REMARK  212  A    between atoms: _518  and  _521
REMARK  213  A    between atoms: _521  and  _522
REMARK  214  A    between atoms: _527  and  _529
REMARK  215  A    between atoms: _529  and  _530
REMARK  216  A    between atoms: _529  and  _532
REMARK  217  A    between atoms: _532  and  _533
REMARK  218  A    between atoms: _536  and  _538
REMARK  219  A    between atoms: _538  and  _539
REMARK  220  A    between atoms: _541  and  _543
REMARK  221  A    between atoms: _543  and  _544
REMARK  222  A    between atoms: _543  and  _546
REMARK  223  A    between atoms: _546  and  _547
REMARK  224  A    between atoms: _547  and  _548
REMARK  225  A    between atoms: _548  and  _549
REMARK  226  A    between atoms: _558  and  _560
REMARK  227  A    between atoms: _560  and  _561
REMARK  228  A    between atoms: _560  and  _563
REMARK  229  A    between atoms: _563  and  _564
REMARK                            x       y       z     vdW  Elec       q    Type
REMARK                         _______ _______ _______ _____ _____    ______ ____
ROOT
ATOM      1  C   GLY A   5      10.999  23.918  18.595  0.00  0.00    +0.243 C 
ATOM      2  N   ALA A   6      10.950  23.564  19.877  0.00  0.00    -0.297 N 
ATOM      3  H   ALA A   6      10.836  24.325  20.576  0.00  0.00    +0.150 HD
ATOM      4  O   GLY A   5      11.153  23.062  17.717  0.00  0.00    -0.273 OA
ENDROOT
BRANCH   2   5
ATOM      5  CA  ALA A   6      11.041  22.216  20.379  0.00  0.00    +0.149 C 
ATOM      6  CB  ALA A   6      12.017  22.150  21.570  0.00  0.00    +0.031 C 
BRANCH   5   7
ATOM      7  C   ALA A   6       9.669  21.701  20.821  0.00  0.00    +0.241 C 
ATOM      8  O   ALA A   6       9.065  22.319  21.697  0.00  0.00    -0.273 OA
ATOM      9  N   ASP A   7       9.181  20.591  20.268  0.00  0.00    -0.297 N 
ATOM     10  H   ASP A   7       9.702  20.131  19.495  0.00  0.00    +0.150 HD
BRANCH   9  11
ATOM     11  CA  ASP A   7       7.932  20.017  20.731  0.00  0.00    +0.160 C 
BRANCH  11  12
ATOM     12  C   ASP A   7       8.067  19.496  22.164  0.00  0.00    +0.241 C 
ATOM     13  O   ASP A   7       7.128  19.555  22.961  0.00  0.00    -0.273 OA
ATOM     14  N   ASN A   8       9.253  18.983  22.439  0.00  0.00    -0.297 N 
ATOM     15  H   ASN A   8      10.005  19.194  21.752  0.00  0.00    +0.150 HD
BRANCH  14  16
ATOM     16  CA  ASN A   8       9.647  18.165  23.569  0.00  0.00    +0.158 C 
BRANCH  16  17
ATOM     17  C   ASN A   8      10.750  18.752  24.425  0.00  0.00    +0.241 C 
ATOM     18  N   THR A   9      10.688  18.584  25.743  0.00  0.00    -0.295 N 
ATOM     19  H   THR A   9       9.825  18.160  26.138  0.00  0.00    +0.150 HD
ATOM     20  O   ASN A   8      11.681  19.339  23.883  0.00  0.00    -0.273 OA
BRANCH  18  21
ATOM     21  CA  THR A   9      11.742  18.952  26.663  0.00  0.00    +0.176 C 
BRANCH  21  22
ATOM     22  C   THR A   9      12.807  17.855  26.646  0.00  0.00    +0.243 C 
ATOM     23  O   THR A   9      12.459  16.658  26.788  0.00  0.00    -0.273 OA
ATOM     24  N   VAL A  10      14.062  18.275  26.425  0.00  0.00    -0.298 N 
ATOM     25  H   VAL A  10      14.257  19.293  26.344  0.00  0.00    +0.150 HD
BRANCH  24  26
ATOM     26  CA  VAL A  10      15.153  17.320  26.297  0.00  0.00    +0.137 C 
BRANCH  26  27
ATOM     27  CB  VAL A  10      15.689  17.165  24.848  0.00  0.00    +0.026 C 
ATOM     28  CG2 VAL A  10      16.568  15.920  24.741  0.00  0.00    +0.002 C 
ATOM     29  CG1 VAL A  10      14.567  17.117  23.832  0.00  0.00    +0.002 C 
ENDBRANCH  26  27
BRANCH  26  30
ATOM     30  C   VAL A  10      16.287  17.775  27.202  0.00  0.00    +0.227 C 
ATOM     31  O   VAL A  10      16.709  18.928  27.074  0.00  0.00    -0.286 OA
ENDBRANCH  26  30
ENDBRANCH  24  26
ENDBRANCH  21  22
BRANCH  21  32
ATOM     32  CB  THR A   9      11.094  19.096  28.046  0.00  0.00    +0.137 C 
ATOM     33  CG2 THR A   9      12.147  19.302  29.139  0.00  0.00    +0.034 C 
BRANCH  32  34
ATOM     34  OG1 THR A   9      10.262  20.270  27.988  0.00  0.00    -0.382 OA
ATOM     35  HG1 THR A   9       9.575  20.152  27.285  0.00  0.00    +0.210 HD
ENDBRANCH  32  34
ENDBRANCH  21  32
ENDBRANCH  18  21
ENDBRANCH  16  17
BRANCH  16  36
ATOM     36  CB  ASN A   8      10.175  16.813  23.020  0.00  0.00    +0.114 C 
BRANCH  36  37
ATOM     37  CG  ASN A   8       9.269  16.243  21.940  0.00  0.00    +0.222 C 
ATOM     38  OD1 ASN A   8       8.111  15.961  22.245  0.00  0.00    -0.275 OA
ATOM     39  ND2 ASN A   8       9.760  16.067  20.707  0.00  0.00    -0.329 N 
ATOM     40 HD21 ASN A   8      10.747  16.321  20.499  0.00  0.00    +0.145 HD
ATOM     41 HD22 ASN A   8       9.155  15.676  19.957  0.00  0.00    +0.145 HD
ENDBRANCH  36  37
ENDBRANCH  16  36
ENDBRANCH  14  16
ENDBRANCH  11  12
BRANCH  11  42
ATOM     42  CB  ASP A   7       7.530  18.835  19.859  0.00  0.00    +0.143 C 
BRANCH  42  43
ATOM     43  CG  ASP A   7       7.287  19.127  18.389  0.00  0.00    +0.367 C 
ATOM     44  OD2 ASP A   7       7.060  20.286  17.947  0.00  0.00    -0.246 OA
ATOM     45  OD1 ASP A   7       7.305  18.079  17.657  0.00  0.00    -0.246 OA
ENDBRANCH  42  43
ENDBRANCH  11  42
ENDBRANCH   9  11
ENDBRANCH   5   7
ENDBRANCH   2   5
BRANCH   1  46
ATOM     46  CA  GLY A   5      10.870  25.398  18.237  0.00  0.00    +0.176 C 
BRANCH  46  49
ATOM     47  C   THR A   4       9.507  26.498  19.935  0.00  0.00    +0.243 C 
ATOM     48  O   THR A   4       8.467  26.028  19.435  0.00  0.00    -0.273 OA
ATOM     49  N   GLY A   5      10.713  26.252  19.427  0.00  0.00    -0.295 N 
ATOM     50  H   GLY A   5      11.554  26.668  19.876  0.00  0.00    +0.150 HD
BRANCH  47  51
ATOM     51  CA  THR A   4       9.417  27.385  21.167  0.00  0.00    +0.176 C 
BRANCH  51  54
ATOM     52  C   ASP A   3      11.289  26.512  22.446  0.00  0.00    +0.241 C 
ATOM     53  O   ASP A   3      10.814  25.371  22.462  0.00  0.00    -0.273 OA
ATOM     54  N   THR A   4      10.727  27.571  21.824  0.00  0.00    -0.295 N 
ATOM     55  H   THR A   4      11.205  28.495  21.808  0.00  0.00    +0.150 HD
BRANCH  52  56
ATOM     56  CA  ASP A   3      12.596  26.749  23.151  0.00  0.00    +0.160 C 
BRANCH  56  58
ATOM     57  C   LEU A   2      13.019  28.112  25.110  0.00  0.00    +0.241 C 
ATOM     58  N   ASP A   3      12.462  27.009  24.587  0.00  0.00    -0.297 N 
ATOM     59  H   ASP A   3      11.940  26.345  25.195  0.00  0.00    +0.150 HD
ATOM     60  O   LEU A   2      13.416  29.081  24.448  0.00  0.00    -0.273 OA
BRANCH  57  61
ATOM     61  CA  LEU A   2      13.145  28.136  26.625  0.00  0.00    +0.149 C 
BRANCH  61  63
ATOM     62  C   LEU A   1      15.279  27.050  26.893  0.00  0.00    +0.238 C 
ATOM     63  N   LEU A   2      14.552  28.155  26.991  0.00  0.00    -0.297 N 
ATOM     64  H   LEU A   2      14.989  29.036  27.330  0.00  0.00    +0.150 HD
ATOM     65  O   LEU A   1      14.756  25.943  26.673  0.00  0.00    -0.274 OA
BRANCH  62  66
ATOM     66  CA  LEU A   1      16.791  27.124  27.072  0.00  0.00    +0.145 C 
BRANCH  66  67
ATOM     67  N   LEU A   1      17.269  26.170  28.069  0.00  0.00    -0.238 NA
ATOM     68  H   LEU A   1      17.484  25.198  27.767  0.00  0.00    +0.142 HD
ENDBRANCH  66  67
BRANCH  66  69
ATOM     69  CB  LEU A   1      17.535  26.732  25.794  0.00  0.00    +0.026 C 
BRANCH  69  70
ATOM     70  CG  LEU A   1      17.489  27.586  24.546  0.00  0.00    +0.002 C 
ATOM     71  CD2 LEU A   1      18.051  28.978  24.821  0.00  0.00    +0.000 C 
ATOM     72  CD1 LEU A   1      18.285  26.910  23.427  0.00  0.00    +0.000 C 
ENDBRANCH  69  70
ENDBRANCH  66  69
ENDBRANCH  62  66
ENDBRANCH  61  63
BRANCH  61  73
ATOM     73  CB  LEU A   2      12.461  29.378  27.161  0.00  0.00    +0.029 C 
BRANCH  73  74
ATOM     74  CG  LEU A   2      12.582  29.561  28.688  0.00  0.00    +0.002 C 
ATOM     75  CD2 LEU A   2      11.994  28.357  29.398  0.00  0.00    +0.000 C 
ATOM     76  CD1 LEU A   2      11.913  30.871  29.099  0.00  0.00    +0.000 C 
ENDBRANCH  73  74
ENDBRANCH  61  73
ENDBRANCH  57  61
ENDBRANCH  56  58
BRANCH  56  77
ATOM     77  CB  ASP A   3      13.491  25.513  22.998  0.00  0.00    +0.143 C 
BRANCH  77  78
ATOM     78  CG  ASP A   3      13.891  25.249  21.560  0.00  0.00    +0.367 C 
ATOM     79  OD2 ASP A   3      14.737  24.370  21.297  0.00  0.00    -0.246 OA
ATOM     80  OD1 ASP A   3      13.358  25.907  20.625  0.00  0.00    -0.246 OA
ENDBRANCH  77  78
ENDBRANCH  56  77
ENDBRANCH  52  56
ENDBRANCH  51  54
BRANCH  51  81
ATOM     81  CB  THR A   4       8.835  28.755  20.773  0.00  0.00    +0.137 C 
ATOM     82  CG2 THR A   4       8.683  29.628  22.032  0.00  0.00    +0.034 C 
BRANCH  81  83
ATOM     83  OG1 THR A   4       9.759  29.387  19.890  0.00  0.00    -0.382 OA
ATOM     84  HG1 THR A   4       9.884  28.823  19.086  0.00  0.00    +0.210 HD
ENDBRANCH  81  83
ENDBRANCH  51  81
ENDBRANCH  47  51
ENDBRANCH  46  49
ENDBRANCH   1  46
TORSDOF 35
REMARK  Name = ../refined-set-2016/4hdb/4hdb_pocket.pdb
REMARK  229 active torsions:
REMARK  status: ('A' for Active; 'I' for Inactive)
REMARK    1  A    between atoms: _1  and  _3
REMARK    2  A    between atoms: _3  and  _4
REMARK    3  A    between atoms: _3  and  _6
REMARK    4  A    between atoms: _6  and  _7
REMARK    5  A    between atoms: _7  and  _8
REMARK    6  A    between atoms: _8  and  _9
REMARK    7  A    between atoms: _18  and  _20
REMARK    8  A    between atoms: _20  and  _21
REMARK    9  A    between atoms: _20  and  _23
REMARK   10  A    between atoms: _23  and  _24
REMARK   11  A    between atoms: _27  and  _29
REMARK   12  A    between atoms: _29  and  _30
REMARK   13  A    between atoms: _29  and  _32
REMARK   14  A    between atoms: _32  and  _33
REMARK   15  A    between atoms: _36  and  _38
REMARK   16  A    between atoms: _38  and  _39
REMARK   17  A    between atoms: _38  and  _41
REMARK   18  A    between atoms: _41  and  _42
REMARK   19  A    between atoms: _45  and  _47
REMARK   20  A    between atoms: _47  and  _48
REMARK   21  A    between atoms: _47  and  _50
REMARK   22  A    between atoms: _50  and  _51
REMARK   23  A    between atoms: _54  and  _56
REMARK   24  A    between atoms: _56  and  _57
REMARK   25  A    between atoms: _59  and  _61
REMARK   26  A    between atoms: _61  and  _62
REMARK   27  A    between atoms: _65  and  _67
REMARK   28  A    between atoms: _67  and  _68
REMARK   29  A    between atoms: _67  and  _70
REMARK   30  A    between atoms: _70  and  _71
REMARK   31  A    between atoms: _74  and  _76
REMARK   32  A    between atoms: _76  and  _77
REMARK   33  A    between atoms: _76  and  _79
REMARK   34  A    between atoms: _79  and  _80
REMARK   35  A    between atoms: _85  and  _87
REMARK   36  A    between atoms: _87  and  _88
REMARK   37  A    between atoms: _87  and  _90
REMARK   38  A    between atoms: _90  and  _91
REMARK   39  A    between atoms: _94  and  _96
REMARK   40  A    between atoms: _96  and  _97
REMARK   41  A    between atoms: _96  and  _99
REMARK   42  A    between atoms: _102  and  _104
REMARK   43  A    between atoms: _104  and  _105
REMARK   44  A    between atoms: _104  and  _107
REMARK   45  A    between atoms: _107  and  _108
REMARK   46  A    between atoms: _108  and  _109
REMARK   47  A    between atoms: _109  and  _110
REMARK   48  A    between atoms: _110  and  _111
REMARK   49  A    between atoms: _115  and  _117
REMARK   50  A    between atoms: _117  and  _118
REMARK   51  A    between atoms: _117  and  _120
REMARK   52  A    between atoms: _120  and  _121
REMARK   53  A    between atoms: _121  and  _122
REMARK   54  A    between atoms: _124  and  _126
REMARK   55  A    between atoms: _126  and  _127
REMARK   56  A    between atoms: _126  and  _129
REMARK   57  A    between atoms: _129  and  _130
REMARK   58  A    between atoms: _133  and  _135
REMARK   59  A    between atoms: _135  and  _136
REMARK   60  A    between atoms: _138  and  _140
REMARK   61  A    between atoms: _140  and  _141
REMARK   62  A    between atoms: _143  and  _145
REMARK   63  A    between atoms: _145  and  _146
REMARK   64  A    between atoms: _145  and  _148
REMARK   65  A    between atoms: _148  and  _149
REMARK   66  A    between atoms: _152  and  _154
REMARK   67  A    between atoms: _154  and  _155
REMARK   68  A    between atoms: _157  and  _159
REMARK   69  A    between atoms: _159  and  _160
REMARK   70  A    between atoms: _162  and  _164
REMARK   71  A    between atoms: _164  and  _165
REMARK   72  A    between atoms: _164  and  _167
REMARK   73  A    between atoms: _167  and  _168
REMARK   74  A    between atoms: _174  and  _176
REMARK   75  A    between atoms: _176  and  _177
REMARK   76  A    between atoms: _176  and  _179
REMARK   77  A    between atoms: _179  and  _180
REMARK   78  A    between atoms: _183  and  _185
REMARK   79  A    between atoms: _185  and  _186
REMARK   80  A    between atoms: _185  and  _188
REMARK   81  A    between atoms: _191  and  _193
REMARK   82  A    between atoms: _193  and  _194
REMARK   83  A    between atoms: _193  and  _196
REMARK   84  A    between atoms: _196  and  _197
REMARK   85  A    between atoms: _201  and  _202
REMARK   86  A    between atoms: _207  and  _209
REMARK   87  A    between atoms: _209  and  _210
REMARK   88  A    between atoms: _209  and  _212
REMARK   89  A    between atoms: _212  and  _213
REMARK   90  A    between atoms: _217  and  _218
REMARK   91  A    between atoms: _223  and  _225
REMARK   92  A    between atoms: _225  and  _226
REMARK   93  A    between atoms: _225  and  _228
REMARK   94  A    between atoms: _231  and  _233
REMARK   95  A    between atoms: _233  and  _234
REMARK   96  A    between atoms: _233  and  _236
REMARK   97  A    between atoms: _236  and  _237
REMARK   98  A    between atoms: _242  and  _244
REMARK   99  A    between atoms: _244  and  _245
REMARK  100  A    between atoms: _244  and  _247
REMARK  101  A    between atoms: _247  and  _248
REMARK  102  A    between atoms: _251  and  _253
REMARK  103  A    between atoms: _253  and  _254
REMARK  104  A    between atoms: _253  and  _256
REMARK  105  A    between atoms: _256  and  _257
REMARK  106  A    between atoms: _260  and  _262
REMARK  107  A    between atoms: _262  and  _263
REMARK  108  A    between atoms: _265  and  _267
REMARK  109  A    between atoms: _267  and  _268
REMARK  110  A    between atoms: _267  and  _270
REMARK  111  A    between atoms: _270  and  _271
REMARK  112  A    between atoms: _271  and  _272
REMARK  113  A    between atoms: _272  and  _273
REMARK  114  A    between atoms: _282  and  _284
REMARK  115  A    between atoms: _284  and  _285
REMARK  116  A    between atoms: _284  and  _287
REMARK  117  A    between atoms: _287  and  _288
REMARK  118  A    between atoms: _293  and  _295
REMARK  119  A    between atoms: _295  and  _296
REMARK  120  A    between atoms: _295  and  _298
REMARK  121  A    between atoms: _298  and  _299
REMARK  122  A    between atoms: _299  and  _300
REMARK  123  A    between atoms: _300  and  _301
REMARK  124  A    between atoms: _310  and  _312
REMARK  125  A    between atoms: _312  and  _313
REMARK  126  A    between atoms: _312  and  _315
REMARK  127  A    between atoms: _315  and  _316
REMARK  128  A    between atoms: _319  and  _321
REMARK  129  A    between atoms: _321  and  _322
REMARK  130  A    between atoms: _321  and  _324
REMARK  131  A    between atoms: _324  and  _325
REMARK  132  A    between atoms: _328  and  _330
REMARK  133  A    between atoms: _330  and  _331
REMARK  134  A    between atoms: _330  and  _333
REMARK  135  A    between atoms: _333  and  _334
REMARK  136  A    between atoms: _337  and  _339
REMARK  137  A    between atoms: _339  and  _340
REMARK  138  A    between atoms: _339  and  _342
REMARK  139  A    between atoms: _342  and  _343
REMARK  140  A    between atoms: _346  and  _348
REMARK  141  A    between atoms: _348  and  _349
REMARK  142  A    between atoms: _351  and  _353
REMARK  143  A    between atoms: _353  and  _354
REMARK  144  A    between atoms: _357  and  _359
REMARK  145  A    between atoms: _359  and  _360
REMARK  146  A    between atoms: _359  and  _362
REMARK  147  A    between atoms: _362  and  _363
REMARK  148  A    between atoms: _366  and  _368
REMARK  149  A    between atoms: _368  and  _369
REMARK  150  A    between atoms: _368  and  _371
REMARK  151  A    between atoms: _371  and  _372
REMARK  152  A    between atoms: _377  and  _379
REMARK  153  A    between atoms: _379  and  _380
REMARK  154  A    between atoms: _379  and  _382
REMARK  155  A    between atoms: _382  and  _383
REMARK  156  A    between atoms: _386  and  _388
REMARK  157  A    between atoms: _388  and  _389
REMARK  158  A    between atoms: _388  and  _391
REMARK  159  A    between atoms: _394  and  _396
REMARK  160  A    between atoms: _396  and  _397
REMARK  161  A    between atoms: _396  and  _399
REMARK  162  A    between atoms: _399  and  _400
REMARK  163  A    between atoms: _400  and  _401
REMARK  164  A    between atoms: _401  and  _402
REMARK  165  A    between atoms: _402  and  _403
REMARK  166  A    between atoms: _407  and  _409
REMARK  167  A    between atoms: _409  and  _410
REMARK  168  A    between atoms: _409  and  _412
REMARK  169  A    between atoms: _412  and  _413
REMARK  170  A    between atoms: _413  and  _414
REMARK  171  A    between atoms: _416  and  _418
REMARK  172  A    between atoms: _418  and  _419
REMARK  173  A    between atoms: _418  and  _421
REMARK  174  A    between atoms: _421  and  _422
REMARK  175  A    between atoms: _425  and  _427
REMARK  176  A    between atoms: _427  and  _428
REMARK  177  A    between atoms: _430  and  _432
REMARK  178  A    between atoms: _432  and  _433
REMARK  179  A    between atoms: _435  and  _437
REMARK  180  A    between atoms: _437  and  _438
REMARK  181  A    between atoms: _437  and  _440
REMARK  182  A    between atoms: _440  and  _441
REMARK  183  A    between atoms: _444  and  _446
REMARK  184  A    between atoms: _446  and  _447
REMARK  185  A    between atoms: _449  and  _451
REMARK  186  A    between atoms: _451  and  _452
REMARK  187  A    between atoms: _454  and  _456
REMARK  188  A    between atoms: _456  and  _457
REMARK  189  A    between atoms: _456  and  _459
REMARK  190  A    between atoms: _459  and  _460
REMARK  191  A    between atoms: _466  and  _468
REMARK  192  A    between atoms: _468  and  _469
REMARK  193  A    between atoms: _468  and  _471
REMARK  194  A    between atoms: _471  and  _472
REMARK  195  A    between atoms: _475  and  _477
REMARK  196  A    between atoms: _477  and  _478
REMARK  197  A    between atoms: _477  and  _480
REMARK  198  A    between atoms: _483  and  _485
REMARK  199  A    between atoms: _485  and  _486
REMARK  200  A    between atoms: _485  and  _488
REMARK  201  A    between atoms: _488  and  _489
REMARK  202  A    between atoms: _492  and  _494
REMARK  203  A    between atoms: _494  and  _495
REMARK  204  A    between atoms: _494  and  _497
REMARK  205  A    between atoms: _497  and  _498
REMARK  206  A    between atoms: _502  and  _503
REMARK  207  A    between atoms: _508  and  _510
REMARK  208  A    between atoms: _510  and  _511
REMARK  209  A    between atoms: _510  and  _513
REMARK  210  A    between atoms: _516  and  _518
REMARK  211  A    between atoms: _518  and  _519
REMARK  212  A    between atoms: _518  and  _521
REMARK  213  A    between atoms: _521  and  _522
REMARK  214  A    between atoms: _527  and  _529
REMARK  215  A    between atoms: _529  and  _530
REMARK  216  A    between atoms: _529  and  _532
REMARK  217  A    between atoms: _532  and  _533
REMARK  218  A    between atoms: _536  and  _538
REMARK  219  A    between atoms: _538  and  _539
REMARK  220  A    between atoms: _541  and  _543
REMARK  221  A    between atoms: _543  and  _544
REMARK  222  A    between atoms: _543  and  _546
REMARK  223  A    between atoms: _546  and  _547
REMARK  224  A    between atoms: _547  and  _548
REMARK  225  A    between atoms: _548  and  _549
REMARK  226  A    between atoms: _558  and  _560
REMARK  227  A    between atoms: _560  and  _561
REMARK  228  A    between atoms: _560  and  _563
REMARK  229  A    between atoms: _563  and  _564
REMARK                            x       y       z     vdW  Elec       q    Type
REMARK                         _______ _______ _______ _____ _____    ______ ____
ROOT
ATOM      1  C   GLY A   5      17.623  18.469  13.453  0.00  0.00    +0.243 C 
ATOM      2  N   ILE A   6      18.240  19.639  13.530  0.00  0.00    -0.297 N 
ATOM      3  H   ILE A   6      17.922  20.343  14.227  0.00  0.00    +0.150 HD
ATOM      4  O   GLY A   5      17.825  17.643  12.567  0.00  0.00    -0.273 OA
ENDROOT
BRANCH   2   5
ATOM      5  CA  ILE A   6      19.358  19.951  12.650  0.00  0.00    +0.149 C 
BRANCH   5   6
ATOM      6  C   ILE A   6      20.489  18.984  12.985  0.00  0.00    +0.241 C 
ATOM      7  O   ILE A   6      20.834  18.833  14.156  0.00  0.00    -0.273 OA
ATOM      8  N   GLY A   7      20.984  18.366  11.917  0.00  0.00    -0.295 N 
ATOM      9  H   GLY A   7      20.651  18.656  10.976  0.00  0.00    +0.150 HD
BRANCH   8  10
ATOM     10  CA  GLY A   7      21.973  17.300  12.008  0.00  0.00    +0.176 C 
BRANCH  10  11
ATOM     11  C   GLY A   7      21.297  15.961  11.806  0.00  0.00    +0.243 C 
ATOM     12  N   GLY A   8      20.124  15.728  12.407  0.00  0.00    -0.295 N 
ATOM     13  H   GLY A   8      19.606  16.469  12.921  0.00  0.00    +0.150 HD
ATOM     14  O   GLY A   7      21.810  15.084  11.111  0.00  0.00    -0.273 OA
BRANCH  12  15
ATOM     15  CA  GLY A   8      19.618  14.354  12.291  0.00  0.00    +0.176 C 
BRANCH  15  16
ATOM     16  C   GLY A   8      18.991  13.901  13.588  0.00  0.00    +0.243 C 
ATOM     17  O   GLY A   8      18.663  14.713  14.459  0.00  0.00    -0.273 OA
ATOM     18  N   PHE A   9      18.806  12.594  13.733  0.00  0.00    -0.297 N 
ATOM     19  H   PHE A   9      19.208  11.933  13.038  0.00  0.00    +0.150 HD
BRANCH  18  20
ATOM     20  CA  PHE A   9      18.046  12.088  14.856  0.00  0.00    +0.153 C 
BRANCH  20  21
ATOM     21  C   PHE A   9      18.932  11.531  15.959  0.00  0.00    +0.241 C 
ATOM     22  N   ILE A  10      18.374  11.526  17.160  0.00  0.00    -0.298 N 
ATOM     23  H   ILE A  10      17.441  11.962  17.302  0.00  0.00    +0.150 HD
ATOM     24  O   PHE A   9      20.066  11.087  15.710  0.00  0.00    -0.273 OA
BRANCH  22  25
ATOM     25  CA  ILE A  10      19.067  10.911  18.278  0.00  0.00    +0.137 C 
BRANCH  25  26
ATOM     26  CB  ILE A  10      19.695  11.930  19.248  0.00  0.00    +0.026 C 
ATOM     27  CG2 ILE A  10      20.877  12.698  18.663  0.00  0.00    +0.002 C 
BRANCH  26  28
ATOM     28  CG1 ILE A  10      18.679  12.923  19.835  0.00  0.00    +0.002 C 
ATOM     29  CD1 ILE A  10      19.161  13.644  21.078  0.00  0.00    +0.000 C 
ENDBRANCH  26  28
ENDBRANCH  25  26
BRANCH  25  30
ATOM     30  C   ILE A  10      18.047  10.050  19.026  0.00  0.00    +0.227 C 
ATOM     31  O   ILE A  10      16.841  10.352  19.020  0.00  0.00    -0.286 OA
ENDBRANCH  25  30
ENDBRANCH  22  25
ENDBRANCH  20  21
BRANCH  20  32
ATOM     32  CB  PHE A   9      17.165  10.939  14.359  0.00  0.00    +0.055 C 
BRANCH  32  33
ATOM     33  CG  PHE A   9      15.954  11.425  13.597  0.00  0.00    -0.020 A 
ATOM     34  CD2 PHE A   9      14.741  11.546  14.248  0.00  0.00    -0.004 A 
ATOM     35  CE2 PHE A   9      13.620  11.978  13.573  0.00  0.00    -0.000 A 
ATOM     36  CZ  PHE A   9      13.712  12.310  12.233  0.00  0.00    -0.000 A 
ATOM     37  CE1 PHE A   9      14.932  12.187  11.584  0.00  0.00    -0.000 A 
ATOM     38  CD1 PHE A   9      16.053  11.750  12.262  0.00  0.00    -0.004 A 
ENDBRANCH  32  33
ENDBRANCH  20  32
ENDBRANCH  18  20
ENDBRANCH  15  16
ENDBRANCH  12  15
ENDBRANCH  10  11
ENDBRANCH   8  10
ENDBRANCH   5   6
BRANCH   5  39
ATOM     39  CB  ILE A   6      19.782  21.417  12.769  0.00  0.00    +0.027 C 
ATOM     40  CG2 ILE A   6      21.245  21.640  12.443  0.00  0.00    +0.002 C 
BRANCH  39  41
ATOM     41  CG1 ILE A   6      18.912  22.340  11.883  0.00  0.00    +0.002 C 
ATOM     42  CD1 ILE A   6      19.279  23.796  12.107  0.00  0.00    +0.000 C 
ENDBRANCH  39  41
ENDBRANCH   5  39
ENDBRANCH   2   5
BRANCH   1  43
ATOM     43  CA  GLY A   5      16.625  18.165  14.553  0.00  0.00    +0.176 C 
BRANCH  43  46
ATOM     44  C   GLY A   4      15.291  16.288  15.131  0.00  0.00    +0.243 C 
ATOM     45  O   GLY A   4      14.411  17.106  15.390  0.00  0.00    -0.273 OA
ATOM     46  N   GLY A   5      16.488  16.735  14.730  0.00  0.00    -0.295 N 
ATOM     47  H   GLY A   5      17.281  16.086  14.554  0.00  0.00    +0.150 HD
BRANCH  44  48
ATOM     48  CA  GLY A   4      15.135  14.799  15.215  0.00  0.00    +0.176 C 
BRANCH  48  51
ATOM     49  C   ILE A   3      14.570  13.343  17.002  0.00  0.00    +0.241 C 
ATOM     50  O   ILE A   3      15.710  12.917  16.910  0.00  0.00    -0.273 OA
ATOM     51  N   GLY A   4      14.168  14.338  16.206  0.00  0.00    -0.295 N 
ATOM     52  H   GLY A   4      13.221  14.760  16.288  0.00  0.00    +0.150 HD
BRANCH  49  53
ATOM     53  CA  ILE A   3      13.666  12.809  18.080  0.00  0.00    +0.149 C 
BRANCH  53  55
ATOM     54  C   MET A   2      13.197  10.460  18.253  0.00  0.00    +0.241 C 
ATOM     55  N   ILE A   3      14.095  11.439  18.392  0.00  0.00    -0.297 N 
ATOM     56  H   ILE A   3      15.065  11.238  18.710  0.00  0.00    +0.150 HD
ATOM     57  O   MET A   2      12.014  10.612  17.917  0.00  0.00    -0.273 OA
BRANCH  54  58
ATOM     58  CA  MET A   2      13.672   9.047  18.555  0.00  0.00    +0.149 C 
BRANCH  58  61
ATOM     59  C   LYS A   1      13.004   8.177  20.715  0.00  0.00    +0.238 C 
ATOM     60  O   LYS A   1      14.162   8.276  21.126  0.00  0.00    -0.274 OA
ATOM     61  N   MET A   2      12.706   8.471  19.471  0.00  0.00    -0.297 N 
ATOM     62  H   MET A   2      11.742   8.284  19.129  0.00  0.00    +0.150 HD
BRANCH  59  63
ATOM     63  CA  LYS A   1      11.840   7.737  21.585  0.00  0.00    +0.145 C 
BRANCH  63  64
ATOM     64  N   LYS A   1      12.309   6.737  22.523  0.00  0.00    -0.238 NA
ATOM     65  H   LYS A   1      13.294   6.762  22.855  0.00  0.00    +0.142 HD
ENDBRANCH  63  64
BRANCH  63  66
ATOM     66  CB  LYS A   1      11.253   8.924  22.365  0.00  0.00    +0.026 C 
BRANCH  66  67
ATOM     67  CG  LYS A   1      10.530   9.939  21.468  0.00  0.00    -0.000 C 
BRANCH  67  68
ATOM     68  CD  LYS A   1       9.672  10.890  22.285  0.00  0.00    -0.024 C 
BRANCH  68  69
ATOM     69  CE  LYS A   1       9.098  11.987  21.412  0.00  0.00    -0.086 C 
BRANCH  69  70
ATOM     70  NZ  LYS A   1       7.872  11.554  20.701  0.00  0.00    +0.380 N 
ATOM     71  HZ1 LYS A   1       7.148  11.281  21.396  0.00  0.00    -0.089 HD
ATOM     72  HZ2 LYS A   1       7.516  12.338  20.117  0.00  0.00    -0.089 HD
ATOM     73  HZ3 LYS A   1       8.094  10.740  20.093  0.00  0.00    -0.089 HD
ENDBRANCH  69  70
ENDBRANCH  68  69
ENDBRANCH  67  68
ENDBRANCH  66  67
ENDBRANCH  63  66
ENDBRANCH  59  63
ENDBRANCH  58  61
BRANCH  58  74
ATOM     74  CB  MET A   2      13.753   8.212  17.277  0.00  0.00    +0.041 C 
BRANCH  74  75
ATOM     75  CG  MET A   2      14.682   6.994  17.433  0.00  0.00    +0.060 C 
BRANCH  75  76
ATOM     76  SD  MET A   2      16.250   7.426  16.637  0.00  0.00    -0.139 S 
ATOM     77  CE  MET A   2      15.626   7.965  15.043  0.00  0.00    +0.069 C 
ENDBRANCH  75  76
ENDBRANCH  74  75
ENDBRANCH  58  74
ENDBRANCH  54  58
ENDBRANCH  53  55
BRANCH  53  78
ATOM     78  CB  ILE A   3      13.700  13.777  19.281  0.00  0.00    +0.027 C 
ATOM     79  CG2 ILE A   3      12.585  13.404  20.250  0.00  0.00    +0.002 C 
BRANCH  78  80
ATOM     80  CG1 ILE A   3      15.091  13.896  19.918  0.00  0.00    +0.002 C 
ATOM     81  CD1 ILE A   3      15.109  14.836  21.113  0.00  0.00    +0.000 C 
ENDBRANCH  78  80
ENDBRANCH  53  78
ENDBRANCH  49  53
ENDBRANCH  48  51
ENDBRANCH  44  48
ENDBRANCH  43  46
ENDBRANCH   1  43
TORSDOF 36
REMARK  Name = ../refined-set-2016/4hdb/4hdb_pocket.pdb
REMARK  229 active torsions:
REMARK  status: ('A' for Active; 'I' for Inactive)
REMARK    1  A    between atoms: _1  and  _3
REMARK    2  A    between atoms: _3  and  _4
REMARK    3  A    between atoms: _3  and  _6
REMARK    4  A    between atoms: _6  and  _7
REMARK    5  A    between atoms: _7  and  _8
REMARK    6  A    between atoms: _8  and  _9
REMARK    7  A    between atoms: _18  and  _20
REMARK    8  A    between atoms: _20  and  _21
REMARK    9  A    between atoms: _20  and  _23
REMARK   10  A    between atoms: _23  and  _24
REMARK   11  A    between atoms: _27  and  _29
REMARK   12  A    between atoms: _29  and  _30
REMARK   13  A    between atoms: _29  and  _32
REMARK   14  A    between atoms: _32  and  _33
REMARK   15  A    between atoms: _36  and  _38
REMARK   16  A    between atoms: _38  and  _39
REMARK   17  A    between atoms: _38  and  _41
REMARK   18  A    between atoms: _41  and  _42
REMARK   19  A    between atoms: _45  and  _47
REMARK   20  A    between atoms: _47  and  _48
REMARK   21  A    between atoms: _47  and  _50
REMARK   22  A    between atoms: _50  and  _51
REMARK   23  A    between atoms: _54  and  _56
REMARK   24  A    between atoms: _56  and  _57
REMARK   25  A    between atoms: _59  and  _61
REMARK   26  A    between atoms: _61  and  _62
REMARK   27  A    between atoms: _65  and  _67
REMARK   28  A    between atoms: _67  and  _68
REMARK   29  A    between atoms: _67  and  _70
REMARK   30  A    between atoms: _70  and  _71
REMARK   31  A    between atoms: _74  and  _76
REMARK   32  A    between atoms: _76  and  _77
REMARK   33  A    between atoms: _76  and  _79
REMARK   34  A    between atoms: _79  and  _80
REMARK   35  A    between atoms: _85  and  _87
REMARK   36  A    between atoms: _87  and  _88
REMARK   37  A    between atoms: _87  and  _90
REMARK   38  A    between atoms: _90  and  _91
REMARK   39  A    between atoms: _94  and  _96
REMARK   40  A    between atoms: _96  and  _97
REMARK   41  A    between atoms: _96  and  _99
REMARK   42  A    between atoms: _102  and  _104
REMARK   43  A    between atoms: _104  and  _105
REMARK   44  A    between atoms: _104  and  _107
REMARK   45  A    between atoms: _107  and  _108
REMARK   46  A    between atoms: _108  and  _109
REMARK   47  A    between atoms: _109  and  _110
REMARK   48  A    between atoms: _110  and  _111
REMARK   49  A    between atoms: _115  and  _117
REMARK   50  A    between atoms: _117  and  _118
REMARK   51  A    between atoms: _117  and  _120
REMARK   52  A    between atoms: _120  and  _121
REMARK   53  A    between atoms: _121  and  _122
REMARK   54  A    between atoms: _124  and  _126
REMARK   55  A    between atoms: _126  and  _127
REMARK   56  A    between atoms: _126  and  _129
REMARK   57  A    between atoms: _129  and  _130
REMARK   58  A    between atoms: _133  and  _135
REMARK   59  A    between atoms: _135  and  _136
REMARK   60  A    between atoms: _138  and  _140
REMARK   61  A    between atoms: _140  and  _141
REMARK   62  A    between atoms: _143  and  _145
REMARK   63  A    between atoms: _145  and  _146
REMARK   64  A    between atoms: _145  and  _148
REMARK   65  A    between atoms: _148  and  _149
REMARK   66  A    between atoms: _152  and  _154
REMARK   67  A    between atoms: _154  and  _155
REMARK   68  A    between atoms: _157  and  _159
REMARK   69  A    between atoms: _159  and  _160
REMARK   70  A    between atoms: _162  and  _164
REMARK   71  A    between atoms: _164  and  _165
REMARK   72  A    between atoms: _164  and  _167
REMARK   73  A    between atoms: _167  and  _168
REMARK   74  A    between atoms: _174  and  _176
REMARK   75  A    between atoms: _176  and  _177
REMARK   76  A    between atoms: _176  and  _179
REMARK   77  A    between atoms: _179  and  _180
REMARK   78  A    between atoms: _183  and  _185
REMARK   79  A    between atoms: _185  and  _186
REMARK   80  A    between atoms: _185  and  _188
REMARK   81  A    between atoms: _191  and  _193
REMARK   82  A    between atoms: _193  and  _194
REMARK   83  A    between atoms: _193  and  _196
REMARK   84  A    between atoms: _196  and  _197
REMARK   85  A    between atoms: _201  and  _202
REMARK   86  A    between atoms: _207  and  _209
REMARK   87  A    between atoms: _209  and  _210
REMARK   88  A    between atoms: _209  and  _212
REMARK   89  A    between atoms: _212  and  _213
REMARK   90  A    between atoms: _217  and  _218
REMARK   91  A    between atoms: _223  and  _225
REMARK   92  A    between atoms: _225  and  _226
REMARK   93  A    between atoms: _225  and  _228
REMARK   94  A    between atoms: _231  and  _233
REMARK   95  A    between atoms: _233  and  _234
REMARK   96  A    between atoms: _233  and  _236
REMARK   97  A    between atoms: _236  and  _237
REMARK   98  A    between atoms: _242  and  _244
REMARK   99  A    between atoms: _244  and  _245
REMARK  100  A    between atoms: _244  and  _247
REMARK  101  A    between atoms: _247  and  _248
REMARK  102  A    between atoms: _251  and  _253
REMARK  103  A    between atoms: _253  and  _254
REMARK  104  A    between atoms: _253  and  _256
REMARK  105  A    between atoms: _256  and  _257
REMARK  106  A    between atoms: _260  and  _262
REMARK  107  A    between atoms: _262  and  _263
REMARK  108  A    between atoms: _265  and  _267
REMARK  109  A    between atoms: _267  and  _268
REMARK  110  A    between atoms: _267  and  _270
REMARK  111  A    between atoms: _270  and  _271
REMARK  112  A    between atoms: _271  and  _272
REMARK  113  A    between atoms: _272  and  _273
REMARK  114  A    between atoms: _282  and  _284
REMARK  115  A    between atoms: _284  and  _285
REMARK  116  A    between atoms: _284  and  _287
REMARK  117  A    between atoms: _287  and  _288
REMARK  118  A    between atoms: _293  and  _295
REMARK  119  A    between atoms: _295  and  _296
REMARK  120  A    between atoms: _295  and  _298
REMARK  121  A    between atoms: _298  and  _299
REMARK  122  A    between atoms: _299  and  _300
REMARK  123  A    between atoms: _300  and  _301
REMARK  124  A    between atoms: _310  and  _312
REMARK  125  A    between atoms: _312  and  _313
REMARK  126  A    between atoms: _312  and  _315
REMARK  127  A    between atoms: _315  and  _316
REMARK  128  A    between atoms: _319  and  _321
REMARK  129  A    between atoms: _321  and  _322
REMARK  130  A    between atoms: _321  and  _324
REMARK  131  A    between atoms: _324  and  _325
REMARK  132  A    between atoms: _328  and  _330
REMARK  133  A    between atoms: _330  and  _331
REMARK  134  A    between atoms: _330  and  _333
REMARK  135  A    between atoms: _333  and  _334
REMARK  136  A    between atoms: _337  and  _339
REMARK  137  A    between atoms: _339  and  _340
REMARK  138  A    between atoms: _339  and  _342
REMARK  139  A    between atoms: _342  and  _343
REMARK  140  A    between atoms: _346  and  _348
REMARK  141  A    between atoms: _348  and  _349
REMARK  142  A    between atoms: _351  and  _353
REMARK  143  A    between atoms: _353  and  _354
REMARK  144  A    between atoms: _357  and  _359
REMARK  145  A    between atoms: _359  and  _360
REMARK  146  A    between atoms: _359  and  _362
REMARK  147  A    between atoms: _362  and  _363
REMARK  148  A    between atoms: _366  and  _368
REMARK  149  A    between atoms: _368  and  _369
REMARK  150  A    between atoms: _368  and  _371
REMARK  151  A    between atoms: _371  and  _372
REMARK  152  A    between atoms: _377  and  _379
REMARK  153  A    between atoms: _379  and  _380
REMARK  154  A    between atoms: _379  and  _382
REMARK  155  A    between atoms: _382  and  _383
REMARK  156  A    between atoms: _386  and  _388
REMARK  157  A    between atoms: _388  and  _389
REMARK  158  A    between atoms: _388  and  _391
REMARK  159  A    between atoms: _394  and  _396
REMARK  160  A    between atoms: _396  and  _397
REMARK  161  A    between atoms: _396  and  _399
REMARK  162  A    between atoms: _399  and  _400
REMARK  163  A    between atoms: _400  and  _401
REMARK  164  A    between atoms: _401  and  _402
REMARK  165  A    between atoms: _402  and  _403
REMARK  166  A    between atoms: _407  and  _409
REMARK  167  A    between atoms: _409  and  _410
REMARK  168  A    between atoms: _409  and  _412
REMARK  169  A    between atoms: _412  and  _413
REMARK  170  A    between atoms: _413  and  _414
REMARK  171  A    between atoms: _416  and  _418
REMARK  172  A    between atoms: _418  and  _419
REMARK  173  A    between atoms: _418  and  _421
REMARK  174  A    between atoms: _421  and  _422
REMARK  175  A    between atoms: _425  and  _427
REMARK  176  A    between atoms: _427  and  _428
REMARK  177  A    between atoms: _430  and  _432
REMARK  178  A    between atoms: _432  and  _433
REMARK  179  A    between atoms: _435  and  _437
REMARK  180  A    between atoms: _437  and  _438
REMARK  181  A    between atoms: _437  and  _440
REMARK  182  A    between atoms: _440  and  _441
REMARK  183  A    between atoms: _444  and  _446
REMARK  184  A    between atoms: _446  and  _447
REMARK  185  A    between atoms: _449  and  _451
REMARK  186  A    between atoms: _451  and  _452
REMARK  187  A    between atoms: _454  and  _456
REMARK  188  A    between atoms: _456  and  _457
REMARK  189  A    between atoms: _456  and  _459
REMARK  190  A    between atoms: _459  and  _460
REMARK  191  A    between atoms: _466  and  _468
REMARK  192  A    between atoms: _468  and  _469
REMARK  193  A    between atoms: _468  and  _471
REMARK  194  A    between atoms: _471  and  _472
REMARK  195  A    between atoms: _475  and  _477
REMARK  196  A    between atoms: _477  and  _478
REMARK  197  A    between atoms: _477  and  _480
REMARK  198  A    between atoms: _483  and  _485
REMARK  199  A    between atoms: _485  and  _486
REMARK  200  A    between atoms: _485  and  _488
REMARK  201  A    between atoms: _488  and  _489
REMARK  202  A    between atoms: _492  and  _494
REMARK  203  A    between atoms: _494  and  _495
REMARK  204  A    between atoms: _494  and  _497
REMARK  205  A    between atoms: _497  and  _498
REMARK  206  A    between atoms: _502  and  _503
REMARK  207  A    between atoms: _508  and  _510
REMARK  208  A    between atoms: _510  and  _511
REMARK  209  A    between atoms: _510  and  _513
REMARK  210  A    between atoms: _516  and  _518
REMARK  211  A    between atoms: _518  and  _519
REMARK  212  A    between atoms: _518  and  _521
REMARK  213  A    between atoms: _521  and  _522
REMARK  214  A    between atoms: _527  and  _529
REMARK  215  A    between atoms: _529  and  _530
REMARK  216  A    between atoms: _529  and  _532
REMARK  217  A    between atoms: _532  and  _533
REMARK  218  A    between atoms: _536  and  _538
REMARK  219  A    between atoms: _538  and  _539
REMARK  220  A    between atoms: _541  and  _543
REMARK  221  A    between atoms: _543  and  _544
REMARK  222  A    between atoms: _543  and  _546
REMARK  223  A    between atoms: _546  and  _547
REMARK  224  A    between atoms: _547  and  _548
REMARK  225  A    between atoms: _548  and  _549
REMARK  226  A    between atoms: _558  and  _560
REMARK  227  A    between atoms: _560  and  _561
REMARK  228  A    between atoms: _560  and  _563
REMARK  229  A    between atoms: _563  and  _564
REMARK                            x       y       z     vdW  Elec       q    Type
REMARK                         _______ _______ _______ _____ _____    ______ ____
ROOT
ATOM      1  CA  VAL A   1      16.499   9.465  23.959  0.00  0.00    +0.133 C 
ENDROOT
BRANCH   1   2
ATOM      2  CB  VAL A   1      15.897  10.888  23.977  0.00  0.00    +0.023 C 
ATOM      3  CG2 VAL A   1      14.456  10.817  23.443  0.00  0.00    +0.002 C 
ATOM      4  CG1 VAL A   1      16.727  11.886  23.200  0.00  0.00    +0.002 C 
ENDBRANCH   1   2
BRANCH   1   5
ATOM      5  N   VAL A   1      16.569   8.930  22.605  0.00  0.00    -0.239 NA
ATOM      6  H   VAL A   1      15.697   8.608  22.138  0.00  0.00    +0.142 HD
ENDBRANCH   1   5
BRANCH   1   7
ATOM      7  C   VAL A   1      15.676   8.519  24.843  0.00  0.00    +0.224 C 
ATOM      8  O   VAL A   1      15.013   7.597  24.308  0.00  0.00    -0.287 OA
ENDBRANCH   1   7
TORSDOF 3
REMARK  Name = ../refined-set-2016/4hdb/4hdb_pocket.pdb
REMARK  229 active torsions:
REMARK  status: ('A' for Active; 'I' for Inactive)
REMARK    1  A    between atoms: _1  and  _3
REMARK    2  A    between atoms: _3  and  _4
REMARK    3  A    between atoms: _3  and  _6
REMARK    4  A    between atoms: _6  and  _7
REMARK    5  A    between atoms: _7  and  _8
REMARK    6  A    between atoms: _8  and  _9
REMARK    7  A    between atoms: _18  and  _20
REMARK    8  A    between atoms: _20  and  _21
REMARK    9  A    between atoms: _20  and  _23
REMARK   10  A    between atoms: _23  and  _24
REMARK   11  A    between atoms: _27  and  _29
REMARK   12  A    between atoms: _29  and  _30
REMARK   13  A    between atoms: _29  and  _32
REMARK   14  A    between atoms: _32  and  _33
REMARK   15  A    between atoms: _36  and  _38
REMARK   16  A    between atoms: _38  and  _39
REMARK   17  A    between atoms: _38  and  _41
REMARK   18  A    between atoms: _41  and  _42
REMARK   19  A    between atoms: _45  and  _47
REMARK   20  A    between atoms: _47  and  _48
REMARK   21  A    between atoms: _47  and  _50
REMARK   22  A    between atoms: _50  and  _51
REMARK   23  A    between atoms: _54  and  _56
REMARK   24  A    between atoms: _56  and  _57
REMARK   25  A    between atoms: _59  and  _61
REMARK   26  A    between atoms: _61  and  _62
REMARK   27  A    between atoms: _65  and  _67
REMARK   28  A    between atoms: _67  and  _68
REMARK   29  A    between atoms: _67  and  _70
REMARK   30  A    between atoms: _70  and  _71
REMARK   31  A    between atoms: _74  and  _76
REMARK   32  A    between atoms: _76  and  _77
REMARK   33  A    between atoms: _76  and  _79
REMARK   34  A    between atoms: _79  and  _80
REMARK   35  A    between atoms: _85  and  _87
REMARK   36  A    between atoms: _87  and  _88
REMARK   37  A    between atoms: _87  and  _90
REMARK   38  A    between atoms: _90  and  _91
REMARK   39  A    between atoms: _94  and  _96
REMARK   40  A    between atoms: _96  and  _97
REMARK   41  A    between atoms: _96  and  _99
REMARK   42  A    between atoms: _102  and  _104
REMARK   43  A    between atoms: _104  and  _105
REMARK   44  A    between atoms: _104  and  _107
REMARK   45  A    between atoms: _107  and  _108
REMARK   46  A    between atoms: _108  and  _109
REMARK   47  A    between atoms: _109  and  _110
REMARK   48  A    between atoms: _110  and  _111
REMARK   49  A    between atoms: _115  and  _117
REMARK   50  A    between atoms: _117  and  _118
REMARK   51  A    between atoms: _117  and  _120
REMARK   52  A    between atoms: _120  and  _121
REMARK   53  A    between atoms: _121  and  _122
REMARK   54  A    between atoms: _124  and  _126
REMARK   55  A    between atoms: _126  and  _127
REMARK   56  A    between atoms: _126  and  _129
REMARK   57  A    between atoms: _129  and  _130
REMARK   58  A    between atoms: _133  and  _135
REMARK   59  A    between atoms: _135  and  _136
REMARK   60  A    between atoms: _138  and  _140
REMARK   61  A    between atoms: _140  and  _141
REMARK   62  A    between atoms: _143  and  _145
REMARK   63  A    between atoms: _145  and  _146
REMARK   64  A    between atoms: _145  and  _148
REMARK   65  A    between atoms: _148  and  _149
REMARK   66  A    between atoms: _152  and  _154
REMARK   67  A    between atoms: _154  and  _155
REMARK   68  A    between atoms: _157  and  _159
REMARK   69  A    between atoms: _159  and  _160
REMARK   70  A    between atoms: _162  and  _164
REMARK   71  A    between atoms: _164  and  _165
REMARK   72  A    between atoms: _164  and  _167
REMARK   73  A    between atoms: _167  and  _168
REMARK   74  A    between atoms: _174  and  _176
REMARK   75  A    between atoms: _176  and  _177
REMARK   76  A    between atoms: _176  and  _179
REMARK   77  A    between atoms: _179  and  _180
REMARK   78  A    between atoms: _183  and  _185
REMARK   79  A    between atoms: _185  and  _186
REMARK   80  A    between atoms: _185  and  _188
REMARK   81  A    between atoms: _191  and  _193
REMARK   82  A    between atoms: _193  and  _194
REMARK   83  A    between atoms: _193  and  _196
REMARK   84  A    between atoms: _196  and  _197
REMARK   85  A    between atoms: _201  and  _202
REMARK   86  A    between atoms: _207  and  _209
REMARK   87  A    between atoms: _209  and  _210
REMARK   88  A    between atoms: _209  and  _212
REMARK   89  A    between atoms: _212  and  _213
REMARK   90  A    between atoms: _217  and  _218
REMARK   91  A    between atoms: _223  and  _225
REMARK   92  A    between atoms: _225  and  _226
REMARK   93  A    between atoms: _225  and  _228
REMARK   94  A    between atoms: _231  and  _233
REMARK   95  A    between atoms: _233  and  _234
REMARK   96  A    between atoms: _233  and  _236
REMARK   97  A    between atoms: _236  and  _237
REMARK   98  A    between atoms: _242  and  _244
REMARK   99  A    between atoms: _244  and  _245
REMARK  100  A    between atoms: _244  and  _247
REMARK  101  A    between atoms: _247  and  _248
REMARK  102  A    between atoms: _251  and  _253
REMARK  103  A    between atoms: _253  and  _254
REMARK  104  A    between atoms: _253  and  _256
REMARK  105  A    between atoms: _256  and  _257
REMARK  106  A    between atoms: _260  and  _262
REMARK  107  A    between atoms: _262  and  _263
REMARK  108  A    between atoms: _265  and  _267
REMARK  109  A    between atoms: _267  and  _268
REMARK  110  A    between atoms: _267  and  _270
REMARK  111  A    between atoms: _270  and  _271
REMARK  112  A    between atoms: _271  and  _272
REMARK  113  A    between atoms: _272  and  _273
REMARK  114  A    between atoms: _282  and  _284
REMARK  115  A    between atoms: _284  and  _285
REMARK  116  A    between atoms: _284  and  _287
REMARK  117  A    between atoms: _287  and  _288
REMARK  118  A    between atoms: _293  and  _295
REMARK  119  A    between atoms: _295  and  _296
REMARK  120  A    between atoms: _295  and  _298
REMARK  121  A    between atoms: _298  and  _299
REMARK  122  A    between atoms: _299  and  _300
REMARK  123  A    between atoms: _300  and  _301
REMARK  124  A    between atoms: _310  and  _312
REMARK  125  A    between atoms: _312  and  _313
REMARK  126  A    between atoms: _312  and  _315
REMARK  127  A    between atoms: _315  and  _316
REMARK  128  A    between atoms: _319  and  _321
REMARK  129  A    between atoms: _321  and  _322
REMARK  130  A    between atoms: _321  and  _324
REMARK  131  A    between atoms: _324  and  _325
REMARK  132  A    between atoms: _328  and  _330
REMARK  133  A    between atoms: _330  and  _331
REMARK  134  A    between atoms: _330  and  _333
REMARK  135  A    between atoms: _333  and  _334
REMARK  136  A    between atoms: _337  and  _339
REMARK  137  A    between atoms: _339  and  _340
REMARK  138  A    between atoms: _339  and  _342
REMARK  139  A    between atoms: _342  and  _343
REMARK  140  A    between atoms: _346  and  _348
REMARK  141  A    between atoms: _348  and  _349
REMARK  142  A    between atoms: _351  and  _353
REMARK  143  A    between atoms: _353  and  _354
REMARK  144  A    between atoms: _357  and  _359
REMARK  145  A    between atoms: _359  and  _360
REMARK  146  A    between atoms: _359  and  _362
REMARK  147  A    between atoms: _362  and  _363
REMARK  148  A    between atoms: _366  and  _368
REMARK  149  A    between atoms: _368  and  _369
REMARK  150  A    between atoms: _368  and  _371
REMARK  151  A    between atoms: _371  and  _372
REMARK  152  A    between atoms: _377  and  _379
REMARK  153  A    between atoms: _379  and  _380
REMARK  154  A    between atoms: _379  and  _382
REMARK  155  A    between atoms: _382  and  _383
REMARK  156  A    between atoms: _386  and  _388
REMARK  157  A    between atoms: _388  and  _389
REMARK  158  A    between atoms: _388  and  _391
REMARK  159  A    between atoms: _394  and  _396
REMARK  160  A    between atoms: _396  and  _397
REMARK  161  A    between atoms: _396  and  _399
REMARK  162  A    between atoms: _399  and  _400
REMARK  163  A    between atoms: _400  and  _401
REMARK  164  A    between atoms: _401  and  _402
REMARK  165  A    between atoms: _402  and  _403
REMARK  166  A    between atoms: _407  and  _409
REMARK  167  A    between atoms: _409  and  _410
REMARK  168  A    between atoms: _409  and  _412
REMARK  169  A    between atoms: _412  and  _413
REMARK  170  A    between atoms: _413  and  _414
REMARK  171  A    between atoms: _416  and  _418
REMARK  172  A    between atoms: _418  and  _419
REMARK  173  A    between atoms: _418  and  _421
REMARK  174  A    between atoms: _421  and  _422
REMARK  175  A    between atoms: _425  and  _427
REMARK  176  A    between atoms: _427  and  _428
REMARK  177  A    between atoms: _430  and  _432
REMARK  178  A    between atoms: _432  and  _433
REMARK  179  A    between atoms: _435  and  _437
REMARK  180  A    between atoms: _437  and  _438
REMARK  181  A    between atoms: _437  and  _440
REMARK  182  A    between atoms: _440  and  _441
REMARK  183  A    between atoms: _444  and  _446
REMARK  184  A    between atoms: _446  and  _447
REMARK  185  A    between atoms: _449  and  _451
REMARK  186  A    between atoms: _451  and  _452
REMARK  187  A    between atoms: _454  and  _456
REMARK  188  A    between atoms: _456  and  _457
REMARK  189  A    between atoms: _456  and  _459
REMARK  190  A    between atoms: _459  and  _460
REMARK  191  A    between atoms: _466  and  _468
REMARK  192  A    between atoms: _468  and  _469
REMARK  193  A    between atoms: _468  and  _471
REMARK  194  A    between atoms: _471  and  _472
REMARK  195  A    between atoms: _475  and  _477
REMARK  196  A    between atoms: _477  and  _478
REMARK  197  A    between atoms: _477  and  _480
REMARK  198  A    between atoms: _483  and  _485
REMARK  199  A    between atoms: _485  and  _486
REMARK  200  A    between atoms: _485  and  _488
REMARK  201  A    between atoms: _488  and  _489
REMARK  202  A    between atoms: _492  and  _494
REMARK  203  A    between atoms: _494  and  _495
REMARK  204  A    between atoms: _494  and  _497
REMARK  205  A    between atoms: _497  and  _498
REMARK  206  A    between atoms: _502  and  _503
REMARK  207  A    between atoms: _508  and  _510
REMARK  208  A    between atoms: _510  and  _511
REMARK  209  A    between atoms: _510  and  _513
REMARK  210  A    between atoms: _516  and  _518
REMARK  211  A    between atoms: _518  and  _519
REMARK  212  A    between atoms: _518  and  _521
REMARK  213  A    between atoms: _521  and  _522
REMARK  214  A    between atoms: _527  and  _529
REMARK  215  A    between atoms: _529  and  _530
REMARK  216  A    between atoms: _529  and  _532
REMARK  217  A    between atoms: _532  and  _533
REMARK  218  A    between atoms: _536  and  _538
REMARK  219  A    between atoms: _538  and  _539
REMARK  220  A    between atoms: _541  and  _543
REMARK  221  A    between atoms: _543  and  _544
REMARK  222  A    between atoms: _543  and  _546
REMARK  223  A    between atoms: _546  and  _547
REMARK  224  A    between atoms: _547  and  _548
REMARK  225  A    between atoms: _548  and  _549
REMARK  226  A    between atoms: _558  and  _560
REMARK  227  A    between atoms: _560  and  _561
REMARK  228  A    between atoms: _560  and  _563
REMARK  229  A    between atoms: _563  and  _564
REMARK                            x       y       z     vdW  Elec       q    Type
REMARK                         _______ _______ _______ _____ _____    ______ ____
ROOT
ATOM      1  CA  LEU A   1      13.451  13.232  27.418  0.00  0.00    +0.133 C 
ENDROOT
BRANCH   1   2
ATOM      2  N   LEU A   1      12.588  14.103  28.192  0.00  0.00    -0.239 NA
ATOM      3  H   LEU A   1      12.467  15.086  27.874  0.00  0.00    +0.142 HD
ENDBRANCH   1   2
BRANCH   1   4
ATOM      4  C   LEU A   1      14.884  13.462  27.860  0.00  0.00    +0.224 C 
ATOM      5  O   LEU A   1      15.272  14.603  28.059  0.00  0.00    -0.287 OA
ENDBRANCH   1   4
BRANCH   1   6
ATOM      6  CB  LEU A   1      13.316  13.528  25.926  0.00  0.00    +0.025 C 
BRANCH   6   7
ATOM      7  CG  LEU A   1      11.859  13.551  25.398  0.00  0.00    +0.002 C 
ATOM      8  CD2 LEU A   1      11.120  12.238  25.664  0.00  0.00    +0.000 C 
ATOM      9  CD1 LEU A   1      11.842  13.898  23.896  0.00  0.00    +0.000 C 
ENDBRANCH   6   7
ENDBRANCH   1   6
TORSDOF 4
REMARK  Name = ../refined-set-2016/4hdb/4hdb_pocket.pdb
REMARK  229 active torsions:
REMARK  status: ('A' for Active; 'I' for Inactive)
REMARK    1  A    between atoms: _1  and  _3
REMARK    2  A    between atoms: _3  and  _4
REMARK    3  A    between atoms: _3  and  _6
REMARK    4  A    between atoms: _6  and  _7
REMARK    5  A    between atoms: _7  and  _8
REMARK    6  A    between atoms: _8  and  _9
REMARK    7  A    between atoms: _18  and  _20
REMARK    8  A    between atoms: _20  and  _21
REMARK    9  A    between atoms: _20  and  _23
REMARK   10  A    between atoms: _23  and  _24
REMARK   11  A    between atoms: _27  and  _29
REMARK   12  A    between atoms: _29  and  _30
REMARK   13  A    between atoms: _29  and  _32
REMARK   14  A    between atoms: _32  and  _33
REMARK   15  A    between atoms: _36  and  _38
REMARK   16  A    between atoms: _38  and  _39
REMARK   17  A    between atoms: _38  and  _41
REMARK   18  A    between atoms: _41  and  _42
REMARK   19  A    between atoms: _45  and  _47
REMARK   20  A    between atoms: _47  and  _48
REMARK   21  A    between atoms: _47  and  _50
REMARK   22  A    between atoms: _50  and  _51
REMARK   23  A    between atoms: _54  and  _56
REMARK   24  A    between atoms: _56  and  _57
REMARK   25  A    between atoms: _59  and  _61
REMARK   26  A    between atoms: _61  and  _62
REMARK   27  A    between atoms: _65  and  _67
REMARK   28  A    between atoms: _67  and  _68
REMARK   29  A    between atoms: _67  and  _70
REMARK   30  A    between atoms: _70  and  _71
REMARK   31  A    between atoms: _74  and  _76
REMARK   32  A    between atoms: _76  and  _77
REMARK   33  A    between atoms: _76  and  _79
REMARK   34  A    between atoms: _79  and  _80
REMARK   35  A    between atoms: _85  and  _87
REMARK   36  A    between atoms: _87  and  _88
REMARK   37  A    between atoms: _87  and  _90
REMARK   38  A    between atoms: _90  and  _91
REMARK   39  A    between atoms: _94  and  _96
REMARK   40  A    between atoms: _96  and  _97
REMARK   41  A    between atoms: _96  and  _99
REMARK   42  A    between atoms: _102  and  _104
REMARK   43  A    between atoms: _104  and  _105
REMARK   44  A    between atoms: _104  and  _107
REMARK   45  A    between atoms: _107  and  _108
REMARK   46  A    between atoms: _108  and  _109
REMARK   47  A    between atoms: _109  and  _110
REMARK   48  A    between atoms: _110  and  _111
REMARK   49  A    between atoms: _115  and  _117
REMARK   50  A    between atoms: _117  and  _118
REMARK   51  A    between atoms: _117  and  _120
REMARK   52  A    between atoms: _120  and  _121
REMARK   53  A    between atoms: _121  and  _122
REMARK   54  A    between atoms: _124  and  _126
REMARK   55  A    between atoms: _126  and  _127
REMARK   56  A    between atoms: _126  and  _129
REMARK   57  A    between atoms: _129  and  _130
REMARK   58  A    between atoms: _133  and  _135
REMARK   59  A    between atoms: _135  and  _136
REMARK   60  A    between atoms: _138  and  _140
REMARK   61  A    between atoms: _140  and  _141
REMARK   62  A    between atoms: _143  and  _145
REMARK   63  A    between atoms: _145  and  _146
REMARK   64  A    between atoms: _145  and  _148
REMARK   65  A    between atoms: _148  and  _149
REMARK   66  A    between atoms: _152  and  _154
REMARK   67  A    between atoms: _154  and  _155
REMARK   68  A    between atoms: _157  and  _159
REMARK   69  A    between atoms: _159  and  _160
REMARK   70  A    between atoms: _162  and  _164
REMARK   71  A    between atoms: _164  and  _165
REMARK   72  A    between atoms: _164  and  _167
REMARK   73  A    between atoms: _167  and  _168
REMARK   74  A    between atoms: _174  and  _176
REMARK   75  A    between atoms: _176  and  _177
REMARK   76  A    between atoms: _176  and  _179
REMARK   77  A    between atoms: _179  and  _180
REMARK   78  A    between atoms: _183  and  _185
REMARK   79  A    between atoms: _185  and  _186
REMARK   80  A    between atoms: _185  and  _188
REMARK   81  A    between atoms: _191  and  _193
REMARK   82  A    between atoms: _193  and  _194
REMARK   83  A    between atoms: _193  and  _196
REMARK   84  A    between atoms: _196  and  _197
REMARK   85  A    between atoms: _201  and  _202
REMARK   86  A    between atoms: _207  and  _209
REMARK   87  A    between atoms: _209  and  _210
REMARK   88  A    between atoms: _209  and  _212
REMARK   89  A    between atoms: _212  and  _213
REMARK   90  A    between atoms: _217  and  _218
REMARK   91  A    between atoms: _223  and  _225
REMARK   92  A    between atoms: _225  and  _226
REMARK   93  A    between atoms: _225  and  _228
REMARK   94  A    between atoms: _231  and  _233
REMARK   95  A    between atoms: _233  and  _234
REMARK   96  A    between atoms: _233  and  _236
REMARK   97  A    between atoms: _236  and  _237
REMARK   98  A    between atoms: _242  and  _244
REMARK   99  A    between atoms: _244  and  _245
REMARK  100  A    between atoms: _244  and  _247
REMARK  101  A    between atoms: _247  and  _248
REMARK  102  A    between atoms: _251  and  _253
REMARK  103  A    between atoms: _253  and  _254
REMARK  104  A    between atoms: _253  and  _256
REMARK  105  A    between atoms: _256  and  _257
REMARK  106  A    between atoms: _260  and  _262
REMARK  107  A    between atoms: _262  and  _263
REMARK  108  A    between atoms: _265  and  _267
REMARK  109  A    between atoms: _267  and  _268
REMARK  110  A    between atoms: _267  and  _270
REMARK  111  A    between atoms: _270  and  _271
REMARK  112  A    between atoms: _271  and  _272
REMARK  113  A    between atoms: _272  and  _273
REMARK  114  A    between atoms: _282  and  _284
REMARK  115  A    between atoms: _284  and  _285
REMARK  116  A    between atoms: _284  and  _287
REMARK  117  A    between atoms: _287  and  _288
REMARK  118  A    between atoms: _293  and  _295
REMARK  119  A    between atoms: _295  and  _296
REMARK  120  A    between atoms: _295  and  _298
REMARK  121  A    between atoms: _298  and  _299
REMARK  122  A    between atoms: _299  and  _300
REMARK  123  A    between atoms: _300  and  _301
REMARK  124  A    between atoms: _310  and  _312
REMARK  125  A    between atoms: _312  and  _313
REMARK  126  A    between atoms: _312  and  _315
REMARK  127  A    between atoms: _315  and  _316
REMARK  128  A    between atoms: _319  and  _321
REMARK  129  A    between atoms: _321  and  _322
REMARK  130  A    between atoms: _321  and  _324
REMARK  131  A    between atoms: _324  and  _325
REMARK  132  A    between atoms: _328  and  _330
REMARK  133  A    between atoms: _330  and  _331
REMARK  134  A    between atoms: _330  and  _333
REMARK  135  A    between atoms: _333  and  _334
REMARK  136  A    between atoms: _337  and  _339
REMARK  137  A    between atoms: _339  and  _340
REMARK  138  A    between atoms: _339  and  _342
REMARK  139  A    between atoms: _342  and  _343
REMARK  140  A    between atoms: _346  and  _348
REMARK  141  A    between atoms: _348  and  _349
REMARK  142  A    between atoms: _351  and  _353
REMARK  143  A    between atoms: _353  and  _354
REMARK  144  A    between atoms: _357  and  _359
REMARK  145  A    between atoms: _359  and  _360
REMARK  146  A    between atoms: _359  and  _362
REMARK  147  A    between atoms: _362  and  _363
REMARK  148  A    between atoms: _366  and  _368
REMARK  149  A    between atoms: _368  and  _369
REMARK  150  A    between atoms: _368  and  _371
REMARK  151  A    between atoms: _371  and  _372
REMARK  152  A    between atoms: _377  and  _379
REMARK  153  A    between atoms: _379  and  _380
REMARK  154  A    between atoms: _379  and  _382
REMARK  155  A    between atoms: _382  and  _383
REMARK  156  A    between atoms: _386  and  _388
REMARK  157  A    between atoms: _388  and  _389
REMARK  158  A    between atoms: _388  and  _391
REMARK  159  A    between atoms: _394  and  _396
REMARK  160  A    between atoms: _396  and  _397
REMARK  161  A    between atoms: _396  and  _399
REMARK  162  A    between atoms: _399  and  _400
REMARK  163  A    between atoms: _400  and  _401
REMARK  164  A    between atoms: _401  and  _402
REMARK  165  A    between atoms: _402  and  _403
REMARK  166  A    between atoms: _407  and  _409
REMARK  167  A    between atoms: _409  and  _410
REMARK  168  A    between atoms: _409  and  _412
REMARK  169  A    between atoms: _412  and  _413
REMARK  170  A    between atoms: _413  and  _414
REMARK  171  A    between atoms: _416  and  _418
REMARK  172  A    between atoms: _418  and  _419
REMARK  173  A    between atoms: _418  and  _421
REMARK  174  A    between atoms: _421  and  _422
REMARK  175  A    between atoms: _425  and  _427
REMARK  176  A    between atoms: _427  and  _428
REMARK  177  A    between atoms: _430  and  _432
REMARK  178  A    between atoms: _432  and  _433
REMARK  179  A    between atoms: _435  and  _437
REMARK  180  A    between atoms: _437  and  _438
REMARK  181  A    between atoms: _437  and  _440
REMARK  182  A    between atoms: _440  and  _441
REMARK  183  A    between atoms: _444  and  _446
REMARK  184  A    between atoms: _446  and  _447
REMARK  185  A    between atoms: _449  and  _451
REMARK  186  A    between atoms: _451  and  _452
REMARK  187  A    between atoms: _454  and  _456
REMARK  188  A    between atoms: _456  and  _457
REMARK  189  A    between atoms: _456  and  _459
REMARK  190  A    between atoms: _459  and  _460
REMARK  191  A    between atoms: _466  and  _468
REMARK  192  A    between atoms: _468  and  _469
REMARK  193  A    between atoms: _468  and  _471
REMARK  194  A    between atoms: _471  and  _472
REMARK  195  A    between atoms: _475  and  _477
REMARK  196  A    between atoms: _477  and  _478
REMARK  197  A    between atoms: _477  and  _480
REMARK  198  A    between atoms: _483  and  _485
REMARK  199  A    between atoms: _485  and  _486
REMARK  200  A    between atoms: _485  and  _488
REMARK  201  A    between atoms: _488  and  _489
REMARK  202  A    between atoms: _492  and  _494
REMARK  203  A    between atoms: _494  and  _495
REMARK  204  A    between atoms: _494  and  _497
REMARK  205  A    between atoms: _497  and  _498
REMARK  206  A    between atoms: _502  and  _503
REMARK  207  A    between atoms: _508  and  _510
REMARK  208  A    between atoms: _510  and  _511
REMARK  209  A    between atoms: _510  and  _513
REMARK  210  A    between atoms: _516  and  _518
REMARK  211  A    between atoms: _518  and  _519
REMARK  212  A    between atoms: _518  and  _521
REMARK  213  A    between atoms: _521  and  _522
REMARK  214  A    between atoms: _527  and  _529
REMARK  215  A    between atoms: _529  and  _530
REMARK  216  A    between atoms: _529  and  _532
REMARK  217  A    between atoms: _532  and  _533
REMARK  218  A    between atoms: _536  and  _538
REMARK  219  A    between atoms: _538  and  _539
REMARK  220  A    between atoms: _541  and  _543
REMARK  221  A    between atoms: _543  and  _544
REMARK  222  A    between atoms: _543  and  _546
REMARK  223  A    between atoms: _546  and  _547
REMARK  224  A    between atoms: _547  and  _548
REMARK  225  A    between atoms: _548  and  _549
REMARK  226  A    between atoms: _558  and  _560
REMARK  227  A    between atoms: _560  and  _561
REMARK  228  A    between atoms: _560  and  _563
REMARK  229  A    between atoms: _563  and  _564
REMARK                            x       y       z     vdW  Elec       q    Type
REMARK                         _______ _______ _______ _____ _____    ______ ____
ROOT
ATOM      1  CA  VAL A   3      21.932  21.931  25.731  0.00  0.00    +0.149 C 
ENDROOT
BRANCH   1   4
ATOM      2  C   PRO A   2      23.614  20.800  24.377  0.00  0.00    +0.241 C 
ATOM      3  O   PRO A   2      24.524  21.442  24.891  0.00  0.00    -0.273 OA
ATOM      4  N   VAL A   3      22.350  20.966  24.716  0.00  0.00    -0.297 N 
ATOM      5  H   VAL A   3      21.625  20.389  24.244  0.00  0.00    +0.150 HD
BRANCH   2   9
ATOM      6  C   THR A   1      22.443  17.934  23.911  0.00  0.00    +0.244 C 
ATOM      7  O   THR A   1      23.054  17.869  24.974  0.00  0.00    -0.273 OA
ATOM      8  N   PRO A   2      22.823  18.848  23.030  0.00  0.00    -0.272 N 
ATOM      9  CA  PRO A   2      23.910  19.792  23.279  0.00  0.00    +0.152 C 
ATOM     10  CB  PRO A   2      24.013  20.558  21.952  0.00  0.00    +0.031 C 
ATOM     11  CG  PRO A   2      22.638  20.442  21.364  0.00  0.00    +0.024 C 
ATOM     12  CD  PRO A   2      22.228  19.027  21.691  0.00  0.00    +0.094 C 
BRANCH   6  13
ATOM     13  CA  THR A   1      21.317  16.991  23.535  0.00  0.00    +0.172 C 
BRANCH  13  14
ATOM     14  CB  THR A   1      19.984  17.505  24.109  0.00  0.00    +0.135 C 
ATOM     15  CG2 THR A   1      19.979  17.537  25.641  0.00  0.00    +0.034 C 
BRANCH  14  16
ATOM     16  OG1 THR A   1      19.794  18.845  23.650  0.00  0.00    -0.383 OA
ATOM     17  HG1 THR A   1      20.543  19.410  23.965  0.00  0.00    +0.210 HD
ENDBRANCH  14  16
ENDBRANCH  13  14
BRANCH  13  18
ATOM     18  N   THR A   1      21.569  15.642  24.037  0.00  0.00    -0.236 NA
ATOM     19  H   THR A   1      21.085  15.306  24.894  0.00  0.00    +0.142 HD
ENDBRANCH  13  18
ENDBRANCH   6  13
ENDBRANCH   2   9
ENDBRANCH   1   4
BRANCH   1  20
ATOM     20  C   VAL A   3      20.584  21.474  26.268  0.00  0.00    +0.241 C 
ATOM     21  N   ASN A   4      20.277  21.806  27.500  0.00  0.00    -0.297 N 
ATOM     22  H   ASN A   4      20.963  22.338  28.073  0.00  0.00    +0.150 HD
ATOM     23  O   VAL A   3      19.835  20.792  25.567  0.00  0.00    -0.273 OA
BRANCH  21  24
ATOM     24  CA  ASN A   4      18.985  21.439  28.078  0.00  0.00    +0.158 C 
BRANCH  24  25
ATOM     25  C   ASN A   4      17.938  22.331  27.433  0.00  0.00    +0.241 C 
ATOM     26  O   ASN A   4      18.148  23.578  27.409  0.00  0.00    -0.273 OA
ATOM     27  N   ILE A   5      16.874  21.760  26.928  0.00  0.00    -0.298 N 
ATOM     28  H   ILE A   5      16.766  20.732  27.041  0.00  0.00    +0.150 HD
BRANCH  27  29
ATOM     29  CA  ILE A   5      15.832  22.490  26.215  0.00  0.00    +0.137 C 
BRANCH  29  30
ATOM     30  CB  ILE A   5      15.801  21.955  24.757  0.00  0.00    +0.026 C 
ATOM     31  CG2 ILE A   5      14.523  22.364  24.050  0.00  0.00    +0.002 C 
BRANCH  30  32
ATOM     32  CG1 ILE A   5      17.063  22.343  23.994  0.00  0.00    +0.002 C 
ATOM     33  CD1 ILE A   5      17.280  23.830  23.953  0.00  0.00    +0.000 C 
ENDBRANCH  30  32
ENDBRANCH  29  30
BRANCH  29  34
ATOM     34  C   ILE A   5      14.471  22.279  26.869  0.00  0.00    +0.227 C 
ATOM     35  O   ILE A   5      14.123  21.113  27.116  0.00  0.00    -0.286 OA
ENDBRANCH  29  34
ENDBRANCH  27  29
ENDBRANCH  24  25
BRANCH  24  36
ATOM     36  CB  ASN A   4      19.000  21.644  29.595  0.00  0.00    +0.114 C 
BRANCH  36  37
ATOM     37  CG  ASN A   4      19.997  20.791  30.327  0.00  0.00    +0.222 C 
ATOM     38  ND2 ASN A   4      20.653  21.321  31.348  0.00  0.00    -0.329 N 
ATOM     39 HD21 ASN A   4      21.360  20.757  31.861  0.00  0.00    +0.145 HD
ATOM     40 HD22 ASN A   4      20.461  22.302  31.637  0.00  0.00    +0.145 HD
ATOM     41  OD1 ASN A   4      20.189  19.619  29.940  0.00  0.00    -0.275 OA
ENDBRANCH  36  37
ENDBRANCH  24  36
ENDBRANCH  21  24
ENDBRANCH   1  20
BRANCH   1  42
ATOM     42  CB  VAL A   3      21.765  23.364  25.210  0.00  0.00    +0.027 C 
ATOM     43  CG2 VAL A   3      21.494  24.333  26.343  0.00  0.00    +0.002 C 
ATOM     44  CG1 VAL A   3      20.636  23.403  24.188  0.00  0.00    +0.002 C 
ENDBRANCH   1  42
TORSDOF 16
REMARK  Name = ../refined-set-2016/4hdb/4hdb_pocket.pdb
REMARK  229 active torsions:
REMARK  status: ('A' for Active; 'I' for Inactive)
REMARK    1  A    between atoms: _1  and  _3
REMARK    2  A    between atoms: _3  and  _4
REMARK    3  A    between atoms: _3  and  _6
REMARK    4  A    between atoms: _6  and  _7
REMARK    5  A    between atoms: _7  and  _8
REMARK    6  A    between atoms: _8  and  _9
REMARK    7  A    between atoms: _18  and  _20
REMARK    8  A    between atoms: _20  and  _21
REMARK    9  A    between atoms: _20  and  _23
REMARK   10  A    between atoms: _23  and  _24
REMARK   11  A    between atoms: _27  and  _29
REMARK   12  A    between atoms: _29  and  _30
REMARK   13  A    between atoms: _29  and  _32
REMARK   14  A    between atoms: _32  and  _33
REMARK   15  A    between atoms: _36  and  _38
REMARK   16  A    between atoms: _38  and  _39
REMARK   17  A    between atoms: _38  and  _41
REMARK   18  A    between atoms: _41  and  _42
REMARK   19  A    between atoms: _45  and  _47
REMARK   20  A    between atoms: _47  and  _48
REMARK   21  A    between atoms: _47  and  _50
REMARK   22  A    between atoms: _50  and  _51
REMARK   23  A    between atoms: _54  and  _56
REMARK   24  A    between atoms: _56  and  _57
REMARK   25  A    between atoms: _59  and  _61
REMARK   26  A    between atoms: _61  and  _62
REMARK   27  A    between atoms: _65  and  _67
REMARK   28  A    between atoms: _67  and  _68
REMARK   29  A    between atoms: _67  and  _70
REMARK   30  A    between atoms: _70  and  _71
REMARK   31  A    between atoms: _74  and  _76
REMARK   32  A    between atoms: _76  and  _77
REMARK   33  A    between atoms: _76  and  _79
REMARK   34  A    between atoms: _79  and  _80
REMARK   35  A    between atoms: _85  and  _87
REMARK   36  A    between atoms: _87  and  _88
REMARK   37  A    between atoms: _87  and  _90
REMARK   38  A    between atoms: _90  and  _91
REMARK   39  A    between atoms: _94  and  _96
REMARK   40  A    between atoms: _96  and  _97
REMARK   41  A    between atoms: _96  and  _99
REMARK   42  A    between atoms: _102  and  _104
REMARK   43  A    between atoms: _104  and  _105
REMARK   44  A    between atoms: _104  and  _107
REMARK   45  A    between atoms: _107  and  _108
REMARK   46  A    between atoms: _108  and  _109
REMARK   47  A    between atoms: _109  and  _110
REMARK   48  A    between atoms: _110  and  _111
REMARK   49  A    between atoms: _115  and  _117
REMARK   50  A    between atoms: _117  and  _118
REMARK   51  A    between atoms: _117  and  _120
REMARK   52  A    between atoms: _120  and  _121
REMARK   53  A    between atoms: _121  and  _122
REMARK   54  A    between atoms: _124  and  _126
REMARK   55  A    between atoms: _126  and  _127
REMARK   56  A    between atoms: _126  and  _129
REMARK   57  A    between atoms: _129  and  _130
REMARK   58  A    between atoms: _133  and  _135
REMARK   59  A    between atoms: _135  and  _136
REMARK   60  A    between atoms: _138  and  _140
REMARK   61  A    between atoms: _140  and  _141
REMARK   62  A    between atoms: _143  and  _145
REMARK   63  A    between atoms: _145  and  _146
REMARK   64  A    between atoms: _145  and  _148
REMARK   65  A    between atoms: _148  and  _149
REMARK   66  A    between atoms: _152  and  _154
REMARK   67  A    between atoms: _154  and  _155
REMARK   68  A    between atoms: _157  and  _159
REMARK   69  A    between atoms: _159  and  _160
REMARK   70  A    between atoms: _162  and  _164
REMARK   71  A    between atoms: _164  and  _165
REMARK   72  A    between atoms: _164  and  _167
REMARK   73  A    between atoms: _167  and  _168
REMARK   74  A    between atoms: _174  and  _176
REMARK   75  A    between atoms: _176  and  _177
REMARK   76  A    between atoms: _176  and  _179
REMARK   77  A    between atoms: _179  and  _180
REMARK   78  A    between atoms: _183  and  _185
REMARK   79  A    between atoms: _185  and  _186
REMARK   80  A    between atoms: _185  and  _188
REMARK   81  A    between atoms: _191  and  _193
REMARK   82  A    between atoms: _193  and  _194
REMARK   83  A    between atoms: _193  and  _196
REMARK   84  A    between atoms: _196  and  _197
REMARK   85  A    between atoms: _201  and  _202
REMARK   86  A    between atoms: _207  and  _209
REMARK   87  A    between atoms: _209  and  _210
REMARK   88  A    between atoms: _209  and  _212
REMARK   89  A    between atoms: _212  and  _213
REMARK   90  A    between atoms: _217  and  _218
REMARK   91  A    between atoms: _223  and  _225
REMARK   92  A    between atoms: _225  and  _226
REMARK   93  A    between atoms: _225  and  _228
REMARK   94  A    between atoms: _231  and  _233
REMARK   95  A    between atoms: _233  and  _234
REMARK   96  A    between atoms: _233  and  _236
REMARK   97  A    between atoms: _236  and  _237
REMARK   98  A    between atoms: _242  and  _244
REMARK   99  A    between atoms: _244  and  _245
REMARK  100  A    between atoms: _244  and  _247
REMARK  101  A    between atoms: _247  and  _248
REMARK  102  A    between atoms: _251  and  _253
REMARK  103  A    between atoms: _253  and  _254
REMARK  104  A    between atoms: _253  and  _256
REMARK  105  A    between atoms: _256  and  _257
REMARK  106  A    between atoms: _260  and  _262
REMARK  107  A    between atoms: _262  and  _263
REMARK  108  A    between atoms: _265  and  _267
REMARK  109  A    between atoms: _267  and  _268
REMARK  110  A    between atoms: _267  and  _270
REMARK  111  A    between atoms: _270  and  _271
REMARK  112  A    between atoms: _271  and  _272
REMARK  113  A    between atoms: _272  and  _273
REMARK  114  A    between atoms: _282  and  _284
REMARK  115  A    between atoms: _284  and  _285
REMARK  116  A    between atoms: _284  and  _287
REMARK  117  A    between atoms: _287  and  _288
REMARK  118  A    between atoms: _293  and  _295
REMARK  119  A    between atoms: _295  and  _296
REMARK  120  A    between atoms: _295  and  _298
REMARK  121  A    between atoms: _298  and  _299
REMARK  122  A    between atoms: _299  and  _300
REMARK  123  A    between atoms: _300  and  _301
REMARK  124  A    between atoms: _310  and  _312
REMARK  125  A    between atoms: _312  and  _313
REMARK  126  A    between atoms: _312  and  _315
REMARK  127  A    between atoms: _315  and  _316
REMARK  128  A    between atoms: _319  and  _321
REMARK  129  A    between atoms: _321  and  _322
REMARK  130  A    between atoms: _321  and  _324
REMARK  131  A    between atoms: _324  and  _325
REMARK  132  A    between atoms: _328  and  _330
REMARK  133  A    between atoms: _330  and  _331
REMARK  134  A    between atoms: _330  and  _333
REMARK  135  A    between atoms: _333  and  _334
REMARK  136  A    between atoms: _337  and  _339
REMARK  137  A    between atoms: _339  and  _340
REMARK  138  A    between atoms: _339  and  _342
REMARK  139  A    between atoms: _342  and  _343
REMARK  140  A    between atoms: _346  and  _348
REMARK  141  A    between atoms: _348  and  _349
REMARK  142  A    between atoms: _351  and  _353
REMARK  143  A    between atoms: _353  and  _354
REMARK  144  A    between atoms: _357  and  _359
REMARK  145  A    between atoms: _359  and  _360
REMARK  146  A    between atoms: _359  and  _362
REMARK  147  A    between atoms: _362  and  _363
REMARK  148  A    between atoms: _366  and  _368
REMARK  149  A    between atoms: _368  and  _369
REMARK  150  A    between atoms: _368  and  _371
REMARK  151  A    between atoms: _371  and  _372
REMARK  152  A    between atoms: _377  and  _379
REMARK  153  A    between atoms: _379  and  _380
REMARK  154  A    between atoms: _379  and  _382
REMARK  155  A    between atoms: _382  and  _383
REMARK  156  A    between atoms: _386  and  _388
REMARK  157  A    between atoms: _388  and  _389
REMARK  158  A    between atoms: _388  and  _391
REMARK  159  A    between atoms: _394  and  _396
REMARK  160  A    between atoms: _396  and  _397
REMARK  161  A    between atoms: _396  and  _399
REMARK  162  A    between atoms: _399  and  _400
REMARK  163  A    between atoms: _400  and  _401
REMARK  164  A    between atoms: _401  and  _402
REMARK  165  A    between atoms: _402  and  _403
REMARK  166  A    between atoms: _407  and  _409
REMARK  167  A    between atoms: _409  and  _410
REMARK  168  A    between atoms: _409  and  _412
REMARK  169  A    between atoms: _412  and  _413
REMARK  170  A    between atoms: _413  and  _414
REMARK  171  A    between atoms: _416  and  _418
REMARK  172  A    between atoms: _418  and  _419
REMARK  173  A    between atoms: _418  and  _421
REMARK  174  A    between atoms: _421  and  _422
REMARK  175  A    between atoms: _425  and  _427
REMARK  176  A    between atoms: _427  and  _428
REMARK  177  A    between atoms: _430  and  _432
REMARK  178  A    between atoms: _432  and  _433
REMARK  179  A    between atoms: _435  and  _437
REMARK  180  A    between atoms: _437  and  _438
REMARK  181  A    between atoms: _437  and  _440
REMARK  182  A    between atoms: _440  and  _441
REMARK  183  A    between atoms: _444  and  _446
REMARK  184  A    between atoms: _446  and  _447
REMARK  185  A    between atoms: _449  and  _451
REMARK  186  A    between atoms: _451  and  _452
REMARK  187  A    between atoms: _454  and  _456
REMARK  188  A    between atoms: _456  and  _457
REMARK  189  A    between atoms: _456  and  _459
REMARK  190  A    between atoms: _459  and  _460
REMARK  191  A    between atoms: _466  and  _468
REMARK  192  A    between atoms: _468  and  _469
REMARK  193  A    between atoms: _468  and  _471
REMARK  194  A    between atoms: _471  and  _472
REMARK  195  A    between atoms: _475  and  _477
REMARK  196  A    between atoms: _477  and  _478
REMARK  197  A    between atoms: _477  and  _480
REMARK  198  A    between atoms: _483  and  _485
REMARK  199  A    between atoms: _485  and  _486
REMARK  200  A    between atoms: _485  and  _488
REMARK  201  A    between atoms: _488  and  _489
REMARK  202  A    between atoms: _492  and  _494
REMARK  203  A    between atoms: _494  and  _495
REMARK  204  A    between atoms: _494  and  _497
REMARK  205  A    between atoms: _497  and  _498
REMARK  206  A    between atoms: _502  and  _503
REMARK  207  A    between atoms: _508  and  _510
REMARK  208  A    between atoms: _510  and  _511
REMARK  209  A    between atoms: _510  and  _513
REMARK  210  A    between atoms: _516  and  _518
REMARK  211  A    between atoms: _518  and  _519
REMARK  212  A    between atoms: _518  and  _521
REMARK  213  A    between atoms: _521  and  _522
REMARK  214  A    between atoms: _527  and  _529
REMARK  215  A    between atoms: _529  and  _530
REMARK  216  A    between atoms: _529  and  _532
REMARK  217  A    between atoms: _532  and  _533
REMARK  218  A    between atoms: _536  and  _538
REMARK  219  A    between atoms: _538  and  _539
REMARK  220  A    between atoms: _541  and  _543
REMARK  221  A    between atoms: _543  and  _544
REMARK  222  A    between atoms: _543  and  _546
REMARK  223  A    between atoms: _546  and  _547
REMARK  224  A    between atoms: _547  and  _548
REMARK  225  A    between atoms: _548  and  _549
REMARK  226  A    between atoms: _558  and  _560
REMARK  227  A    between atoms: _560  and  _561
REMARK  228  A    between atoms: _560  and  _563
REMARK  229  A    between atoms: _563  and  _564
REMARK                            x       y       z     vdW  Elec       q    Type
REMARK                         _______ _______ _______ _____ _____    ______ ____
ROOT
ATOM      1  CA  ARG A   2       6.276  23.289  24.233  0.00  0.00    +0.149 C 
ENDROOT
BRANCH   1   4
ATOM      2  C   GLY A   1       8.491  22.823  25.148  0.00  0.00    +0.240 C 
ATOM      3  O   GLY A   1       8.142  23.062  26.298  0.00  0.00    -0.274 OA
ATOM      4  N   ARG A   2       7.645  22.799  24.113  0.00  0.00    -0.297 N 
ATOM      5  H   ARG A   2       7.971  22.422  23.200  0.00  0.00    +0.150 HD
BRANCH   2   6
ATOM      6  CA  GLY A   1       9.941  22.562  24.797  0.00  0.00    +0.169 C 
BRANCH   6   7
ATOM      7  N   GLY A   1      10.779  22.452  25.978  0.00  0.00    -0.236 NA
ATOM      8  H   GLY A   1      10.811  21.549  26.493  0.00  0.00    +0.142 HD
ENDBRANCH   6   7
ENDBRANCH   2   6
ENDBRANCH   1   4
BRANCH   1   9
ATOM      9  C   ARG A   2       5.498  22.452  25.237  0.00  0.00    +0.241 C 
ATOM     10  O   ARG A   2       4.560  22.978  25.856  0.00  0.00    -0.273 OA
ATOM     11  N   ASN A   3       5.855  21.180  25.409  0.00  0.00    -0.298 N 
ATOM     12  H   ASN A   3       6.666  20.770  24.904  0.00  0.00    +0.150 HD
BRANCH  11  13
ATOM     13  CA  ASN A   3       5.057  20.388  26.338  0.00  0.00    +0.146 C 
BRANCH  13  14
ATOM     14  C   ASN A   3       5.093  20.966  27.746  0.00  0.00    +0.227 C 
ATOM     15  O   ASN A   3       4.080  20.781  28.460  0.00  0.00    -0.286 OA
ENDBRANCH  13  14
BRANCH  13  16
ATOM     16  CB  ASN A   3       5.506  18.929  26.404  0.00  0.00    +0.112 C 
BRANCH  16  17
ATOM     17  CG  ASN A   3       6.832  18.669  27.076  0.00  0.00    +0.222 C 
ATOM     18  ND2 ASN A   3       6.818  17.717  28.024  0.00  0.00    -0.329 N 
ATOM     19 HD21 ASN A   3       7.696  17.467  28.523  0.00  0.00    +0.145 HD
ATOM     20 HD22 ASN A   3       5.930  17.230  28.259  0.00  0.00    +0.145 HD
ATOM     21  OD1 ASN A   3       7.839  19.301  26.730  0.00  0.00    -0.275 OA
ENDBRANCH  16  17
ENDBRANCH  13  16
ENDBRANCH  11  13
ENDBRANCH   1   9
BRANCH   1  22
ATOM     22  CB  ARG A   2       5.571  23.286  22.877  0.00  0.00    +0.033 C 
BRANCH  22  23
ATOM     23  CG  ARG A   2       6.168  24.338  21.940  0.00  0.00    +0.045 C 
BRANCH  23  24
ATOM     24  CD  ARG A   2       5.385  24.526  20.620  0.00  0.00    +0.174 C 
BRANCH  24  25
ATOM     25  NE  ARG A   2       5.436  23.276  19.855  0.00  0.00    -0.265 N 
ATOM     26  CZ  ARG A   2       4.473  22.364  19.871  0.00  0.00    +0.342 C 
ATOM     27  NH2 ARG A   2       3.342  22.539  20.592  0.00  0.00    -0.292 N 
ATOM     28 HH21 ARG A   2       3.211  23.405  21.152  0.00  0.00    +0.255 HD
ATOM     29 HH22 ARG A   2       2.603  21.807  20.586  0.00  0.00    +0.255 HD
ATOM     30  NH1 ARG A   2       4.620  21.251  19.150  0.00  0.00    -0.292 N 
ATOM     31 HH11 ARG A   2       3.873  20.527  19.153  0.00  0.00    +0.255 HD
ATOM     32 HH12 ARG A   2       5.481  21.107  18.585  0.00  0.00    +0.255 HD
ATOM     33  HE  ARG A   2       6.274  23.094  19.267  0.00  0.00    +0.259 HD
ENDBRANCH  24  25
ENDBRANCH  23  24
ENDBRANCH  22  23
ENDBRANCH   1  22
TORSDOF 12
REMARK  Name = ../refined-set-2016/4hdb/4hdb_pocket.pdb
REMARK  229 active torsions:
REMARK  status: ('A' for Active; 'I' for Inactive)
REMARK    1  A    between atoms: _1  and  _3
REMARK    2  A    between atoms: _3  and  _4
REMARK    3  A    between atoms: _3  and  _6
REMARK    4  A    between atoms: _6  and  _7
REMARK    5  A    between atoms: _7  and  _8
REMARK    6  A    between atoms: _8  and  _9
REMARK    7  A    between atoms: _18  and  _20
REMARK    8  A    between atoms: _20  and  _21
REMARK    9  A    between atoms: _20  and  _23
REMARK   10  A    between atoms: _23  and  _24
REMARK   11  A    between atoms: _27  and  _29
REMARK   12  A    between atoms: _29  and  _30
REMARK   13  A    between atoms: _29  and  _32
REMARK   14  A    between atoms: _32  and  _33
REMARK   15  A    between atoms: _36  and  _38
REMARK   16  A    between atoms: _38  and  _39
REMARK   17  A    between atoms: _38  and  _41
REMARK   18  A    between atoms: _41  and  _42
REMARK   19  A    between atoms: _45  and  _47
REMARK   20  A    between atoms: _47  and  _48
REMARK   21  A    between atoms: _47  and  _50
REMARK   22  A    between atoms: _50  and  _51
REMARK   23  A    between atoms: _54  and  _56
REMARK   24  A    between atoms: _56  and  _57
REMARK   25  A    between atoms: _59  and  _61
REMARK   26  A    between atoms: _61  and  _62
REMARK   27  A    between atoms: _65  and  _67
REMARK   28  A    between atoms: _67  and  _68
REMARK   29  A    between atoms: _67  and  _70
REMARK   30  A    between atoms: _70  and  _71
REMARK   31  A    between atoms: _74  and  _76
REMARK   32  A    between atoms: _76  and  _77
REMARK   33  A    between atoms: _76  and  _79
REMARK   34  A    between atoms: _79  and  _80
REMARK   35  A    between atoms: _85  and  _87
REMARK   36  A    between atoms: _87  and  _88
REMARK   37  A    between atoms: _87  and  _90
REMARK   38  A    between atoms: _90  and  _91
REMARK   39  A    between atoms: _94  and  _96
REMARK   40  A    between atoms: _96  and  _97
REMARK   41  A    between atoms: _96  and  _99
REMARK   42  A    between atoms: _102  and  _104
REMARK   43  A    between atoms: _104  and  _105
REMARK   44  A    between atoms: _104  and  _107
REMARK   45  A    between atoms: _107  and  _108
REMARK   46  A    between atoms: _108  and  _109
REMARK   47  A    between atoms: _109  and  _110
REMARK   48  A    between atoms: _110  and  _111
REMARK   49  A    between atoms: _115  and  _117
REMARK   50  A    between atoms: _117  and  _118
REMARK   51  A    between atoms: _117  and  _120
REMARK   52  A    between atoms: _120  and  _121
REMARK   53  A    between atoms: _121  and  _122
REMARK   54  A    between atoms: _124  and  _126
REMARK   55  A    between atoms: _126  and  _127
REMARK   56  A    between atoms: _126  and  _129
REMARK   57  A    between atoms: _129  and  _130
REMARK   58  A    between atoms: _133  and  _135
REMARK   59  A    between atoms: _135  and  _136
REMARK   60  A    between atoms: _138  and  _140
REMARK   61  A    between atoms: _140  and  _141
REMARK   62  A    between atoms: _143  and  _145
REMARK   63  A    between atoms: _145  and  _146
REMARK   64  A    between atoms: _145  and  _148
REMARK   65  A    between atoms: _148  and  _149
REMARK   66  A    between atoms: _152  and  _154
REMARK   67  A    between atoms: _154  and  _155
REMARK   68  A    between atoms: _157  and  _159
REMARK   69  A    between atoms: _159  and  _160
REMARK   70  A    between atoms: _162  and  _164
REMARK   71  A    between atoms: _164  and  _165
REMARK   72  A    between atoms: _164  and  _167
REMARK   73  A    between atoms: _167  and  _168
REMARK   74  A    between atoms: _174  and  _176
REMARK   75  A    between atoms: _176  and  _177
REMARK   76  A    between atoms: _176  and  _179
REMARK   77  A    between atoms: _179  and  _180
REMARK   78  A    between atoms: _183  and  _185
REMARK   79  A    between atoms: _185  and  _186
REMARK   80  A    between atoms: _185  and  _188
REMARK   81  A    between atoms: _191  and  _193
REMARK   82  A    between atoms: _193  and  _194
REMARK   83  A    between atoms: _193  and  _196
REMARK   84  A    between atoms: _196  and  _197
REMARK   85  A    between atoms: _201  and  _202
REMARK   86  A    between atoms: _207  and  _209
REMARK   87  A    between atoms: _209  and  _210
REMARK   88  A    between atoms: _209  and  _212
REMARK   89  A    between atoms: _212  and  _213
REMARK   90  A    between atoms: _217  and  _218
REMARK   91  A    between atoms: _223  and  _225
REMARK   92  A    between atoms: _225  and  _226
REMARK   93  A    between atoms: _225  and  _228
REMARK   94  A    between atoms: _231  and  _233
REMARK   95  A    between atoms: _233  and  _234
REMARK   96  A    between atoms: _233  and  _236
REMARK   97  A    between atoms: _236  and  _237
REMARK   98  A    between atoms: _242  and  _244
REMARK   99  A    between atoms: _244  and  _245
REMARK  100  A    between atoms: _244  and  _247
REMARK  101  A    between atoms: _247  and  _248
REMARK  102  A    between atoms: _251  and  _253
REMARK  103  A    between atoms: _253  and  _254
REMARK  104  A    between atoms: _253  and  _256
REMARK  105  A    between atoms: _256  and  _257
REMARK  106  A    between atoms: _260  and  _262
REMARK  107  A    between atoms: _262  and  _263
REMARK  108  A    between atoms: _265  and  _267
REMARK  109  A    between atoms: _267  and  _268
REMARK  110  A    between atoms: _267  and  _270
REMARK  111  A    between atoms: _270  and  _271
REMARK  112  A    between atoms: _271  and  _272
REMARK  113  A    between atoms: _272  and  _273
REMARK  114  A    between atoms: _282  and  _284
REMARK  115  A    between atoms: _284  and  _285
REMARK  116  A    between atoms: _284  and  _287
REMARK  117  A    between atoms: _287  and  _288
REMARK  118  A    between atoms: _293  and  _295
REMARK  119  A    between atoms: _295  and  _296
REMARK  120  A    between atoms: _295  and  _298
REMARK  121  A    between atoms: _298  and  _299
REMARK  122  A    between atoms: _299  and  _300
REMARK  123  A    between atoms: _300  and  _301
REMARK  124  A    between atoms: _310  and  _312
REMARK  125  A    between atoms: _312  and  _313
REMARK  126  A    between atoms: _312  and  _315
REMARK  127  A    between atoms: _315  and  _316
REMARK  128  A    between atoms: _319  and  _321
REMARK  129  A    between atoms: _321  and  _322
REMARK  130  A    between atoms: _321  and  _324
REMARK  131  A    between atoms: _324  and  _325
REMARK  132  A    between atoms: _328  and  _330
REMARK  133  A    between atoms: _330  and  _331
REMARK  134  A    between atoms: _330  and  _333
REMARK  135  A    between atoms: _333  and  _334
REMARK  136  A    between atoms: _337  and  _339
REMARK  137  A    between atoms: _339  and  _340
REMARK  138  A    between atoms: _339  and  _342
REMARK  139  A    between atoms: _342  and  _343
REMARK  140  A    between atoms: _346  and  _348
REMARK  141  A    between atoms: _348  and  _349
REMARK  142  A    between atoms: _351  and  _353
REMARK  143  A    between atoms: _353  and  _354
REMARK  144  A    between atoms: _357  and  _359
REMARK  145  A    between atoms: _359  and  _360
REMARK  146  A    between atoms: _359  and  _362
REMARK  147  A    between atoms: _362  and  _363
REMARK  148  A    between atoms: _366  and  _368
REMARK  149  A    between atoms: _368  and  _369
REMARK  150  A    between atoms: _368  and  _371
REMARK  151  A    between atoms: _371  and  _372
REMARK  152  A    between atoms: _377  and  _379
REMARK  153  A    between atoms: _379  and  _380
REMARK  154  A    between atoms: _379  and  _382
REMARK  155  A    between atoms: _382  and  _383
REMARK  156  A    between atoms: _386  and  _388
REMARK  157  A    between atoms: _388  and  _389
REMARK  158  A    between atoms: _388  and  _391
REMARK  159  A    between atoms: _394  and  _396
REMARK  160  A    between atoms: _396  and  _397
REMARK  161  A    between atoms: _396  and  _399
REMARK  162  A    between atoms: _399  and  _400
REMARK  163  A    between atoms: _400  and  _401
REMARK  164  A    between atoms: _401  and  _402
REMARK  165  A    between atoms: _402  and  _403
REMARK  166  A    between atoms: _407  and  _409
REMARK  167  A    between atoms: _409  and  _410
REMARK  168  A    between atoms: _409  and  _412
REMARK  169  A    between atoms: _412  and  _413
REMARK  170  A    between atoms: _413  and  _414
REMARK  171  A    between atoms: _416  and  _418
REMARK  172  A    between atoms: _418  and  _419
REMARK  173  A    between atoms: _418  and  _421
REMARK  174  A    between atoms: _421  and  _422
REMARK  175  A    between atoms: _425  and  _427
REMARK  176  A    between atoms: _427  and  _428
REMARK  177  A    between atoms: _430  and  _432
REMARK  178  A    between atoms: _432  and  _433
REMARK  179  A    between atoms: _435  and  _437
REMARK  180  A    between atoms: _437  and  _438
REMARK  181  A    between atoms: _437  and  _440
REMARK  182  A    between atoms: _440  and  _441
REMARK  183  A    between atoms: _444  and  _446
REMARK  184  A    between atoms: _446  and  _447
REMARK  185  A    between atoms: _449  and  _451
REMARK  186  A    between atoms: _451  and  _452
REMARK  187  A    between atoms: _454  and  _456
REMARK  188  A    between atoms: _456  and  _457
REMARK  189  A    between atoms: _456  and  _459
REMARK  190  A    between atoms: _459  and  _460
REMARK  191  A    between atoms: _466  and  _468
REMARK  192  A    between atoms: _468  and  _469
REMARK  193  A    between atoms: _468  and  _471
REMARK  194  A    between atoms: _471  and  _472
REMARK  195  A    between atoms: _475  and  _477
REMARK  196  A    between atoms: _477  and  _478
REMARK  197  A    between atoms: _477  and  _480
REMARK  198  A    between atoms: _483  and  _485
REMARK  199  A    between atoms: _485  and  _486
REMARK  200  A    between atoms: _485  and  _488
REMARK  201  A    between atoms: _488  and  _489
REMARK  202  A    between atoms: _492  and  _494
REMARK  203  A    between atoms: _494  and  _495
REMARK  204  A    between atoms: _494  and  _497
REMARK  205  A    between atoms: _497  and  _498
REMARK  206  A    between atoms: _502  and  _503
REMARK  207  A    between atoms: _508  and  _510
REMARK  208  A    between atoms: _510  and  _511
REMARK  209  A    between atoms: _510  and  _513
REMARK  210  A    between atoms: _516  and  _518
REMARK  211  A    between atoms: _518  and  _519
REMARK  212  A    between atoms: _518  and  _521
REMARK  213  A    between atoms: _521  and  _522
REMARK  214  A    between atoms: _527  and  _529
REMARK  215  A    between atoms: _529  and  _530
REMARK  216  A    between atoms: _529  and  _532
REMARK  217  A    between atoms: _532  and  _533
REMARK  218  A    between atoms: _536  and  _538
REMARK  219  A    between atoms: _538  and  _539
REMARK  220  A    between atoms: _541  and  _543
REMARK  221  A    between atoms: _543  and  _544
REMARK  222  A    between atoms: _543  and  _546
REMARK  223  A    between atoms: _546  and  _547
REMARK  224  A    between atoms: _547  and  _548
REMARK  225  A    between atoms: _548  and  _549
REMARK  226  A    between atoms: _558  and  _560
REMARK  227  A    between atoms: _560  and  _561
REMARK  228  A    between atoms: _560  and  _563
REMARK  229  A    between atoms: _563  and  _564
REMARK                            x       y       z     vdW  Elec       q    Type
REMARK                         _______ _______ _______ _____ _____    ______ ____
ROOT
ATOM      1  O   UNL     1      18.357  20.524  16.382  0.00  0.00    +0.000 OA
ATOM      2  O   UNL     1      18.276  21.161  16.041  0.00  0.00    +0.000 OA
ENDROOT
TORSDOF 0
REMARK  Name = ../refined-set-2016/4hdb/4hdb_pocket.pdb
REMARK  229 active torsions:
REMARK  status: ('A' for Active; 'I' for Inactive)
REMARK    1  A    between atoms: _1  and  _3
REMARK    2  A    between atoms: _3  and  _4
REMARK    3  A    between atoms: _3  and  _6
REMARK    4  A    between atoms: _6  and  _7
REMARK    5  A    between atoms: _7  and  _8
REMARK    6  A    between atoms: _8  and  _9
REMARK    7  A    between atoms: _18  and  _20
REMARK    8  A    between atoms: _20  and  _21
REMARK    9  A    between atoms: _20  and  _23
REMARK   10  A    between atoms: _23  and  _24
REMARK   11  A    between atoms: _27  and  _29
REMARK   12  A    between atoms: _29  and  _30
REMARK   13  A    between atoms: _29  and  _32
REMARK   14  A    between atoms: _32  and  _33
REMARK   15  A    between atoms: _36  and  _38
REMARK   16  A    between atoms: _38  and  _39
REMARK   17  A    between atoms: _38  and  _41
REMARK   18  A    between atoms: _41  and  _42
REMARK   19  A    between atoms: _45  and  _47
REMARK   20  A    between atoms: _47  and  _48
REMARK   21  A    between atoms: _47  and  _50
REMARK   22  A    between atoms: _50  and  _51
REMARK   23  A    between atoms: _54  and  _56
REMARK   24  A    between atoms: _56  and  _57
REMARK   25  A    between atoms: _59  and  _61
REMARK   26  A    between atoms: _61  and  _62
REMARK   27  A    between atoms: _65  and  _67
REMARK   28  A    between atoms: _67  and  _68
REMARK   29  A    between atoms: _67  and  _70
REMARK   30  A    between atoms: _70  and  _71
REMARK   31  A    between atoms: _74  and  _76
REMARK   32  A    between atoms: _76  and  _77
REMARK   33  A    between atoms: _76  and  _79
REMARK   34  A    between atoms: _79  and  _80
REMARK   35  A    between atoms: _85  and  _87
REMARK   36  A    between atoms: _87  and  _88
REMARK   37  A    between atoms: _87  and  _90
REMARK   38  A    between atoms: _90  and  _91
REMARK   39  A    between atoms: _94  and  _96
REMARK   40  A    between atoms: _96  and  _97
REMARK   41  A    between atoms: _96  and  _99
REMARK   42  A    between atoms: _102  and  _104
REMARK   43  A    between atoms: _104  and  _105
REMARK   44  A    between atoms: _104  and  _107
REMARK   45  A    between atoms: _107  and  _108
REMARK   46  A    between atoms: _108  and  _109
REMARK   47  A    between atoms: _109  and  _110
REMARK   48  A    between atoms: _110  and  _111
REMARK   49  A    between atoms: _115  and  _117
REMARK   50  A    between atoms: _117  and  _118
REMARK   51  A    between atoms: _117  and  _120
REMARK   52  A    between atoms: _120  and  _121
REMARK   53  A    between atoms: _121  and  _122
REMARK   54  A    between atoms: _124  and  _126
REMARK   55  A    between atoms: _126  and  _127
REMARK   56  A    between atoms: _126  and  _129
REMARK   57  A    between atoms: _129  and  _130
REMARK   58  A    between atoms: _133  and  _135
REMARK   59  A    between atoms: _135  and  _136
REMARK   60  A    between atoms: _138  and  _140
REMARK   61  A    between atoms: _140  and  _141
REMARK   62  A    between atoms: _143  and  _145
REMARK   63  A    between atoms: _145  and  _146
REMARK   64  A    between atoms: _145  and  _148
REMARK   65  A    between atoms: _148  and  _149
REMARK   66  A    between atoms: _152  and  _154
REMARK   67  A    between atoms: _154  and  _155
REMARK   68  A    between atoms: _157  and  _159
REMARK   69  A    between atoms: _159  and  _160
REMARK   70  A    between atoms: _162  and  _164
REMARK   71  A    between atoms: _164  and  _165
REMARK   72  A    between atoms: _164  and  _167
REMARK   73  A    between atoms: _167  and  _168
REMARK   74  A    between atoms: _174  and  _176
REMARK   75  A    between atoms: _176  and  _177
REMARK   76  A    between atoms: _176  and  _179
REMARK   77  A    between atoms: _179  and  _180
REMARK   78  A    between atoms: _183  and  _185
REMARK   79  A    between atoms: _185  and  _186
REMARK   80  A    between atoms: _185  and  _188
REMARK   81  A    between atoms: _191  and  _193
REMARK   82  A    between atoms: _193  and  _194
REMARK   83  A    between atoms: _193  and  _196
REMARK   84  A    between atoms: _196  and  _197
REMARK   85  A    between atoms: _201  and  _202
REMARK   86  A    between atoms: _207  and  _209
REMARK   87  A    between atoms: _209  and  _210
REMARK   88  A    between atoms: _209  and  _212
REMARK   89  A    between atoms: _212  and  _213
REMARK   90  A    between atoms: _217  and  _218
REMARK   91  A    between atoms: _223  and  _225
REMARK   92  A    between atoms: _225  and  _226
REMARK   93  A    between atoms: _225  and  _228
REMARK   94  A    between atoms: _231  and  _233
REMARK   95  A    between atoms: _233  and  _234
REMARK   96  A    between atoms: _233  and  _236
REMARK   97  A    between atoms: _236  and  _237
REMARK   98  A    between atoms: _242  and  _244
REMARK   99  A    between atoms: _244  and  _245
REMARK  100  A    between atoms: _244  and  _247
REMARK  101  A    between atoms: _247  and  _248
REMARK  102  A    between atoms: _251  and  _253
REMARK  103  A    between atoms: _253  and  _254
REMARK  104  A    between atoms: _253  and  _256
REMARK  105  A    between atoms: _256  and  _257
REMARK  106  A    between atoms: _260  and  _262
REMARK  107  A    between atoms: _262  and  _263
REMARK  108  A    between atoms: _265  and  _267
REMARK  109  A    between atoms: _267  and  _268
REMARK  110  A    between atoms: _267  and  _270
REMARK  111  A    between atoms: _270  and  _271
REMARK  112  A    between atoms: _271  and  _272
REMARK  113  A    between atoms: _272  and  _273
REMARK  114  A    between atoms: _282  and  _284
REMARK  115  A    between atoms: _284  and  _285
REMARK  116  A    between atoms: _284  and  _287
REMARK  117  A    between atoms: _287  and  _288
REMARK  118  A    between atoms: _293  and  _295
REMARK  119  A    between atoms: _295  and  _296
REMARK  120  A    between atoms: _295  and  _298
REMARK  121  A    between atoms: _298  and  _299
REMARK  122  A    between atoms: _299  and  _300
REMARK  123  A    between atoms: _300  and  _301
REMARK  124  A    between atoms: _310  and  _312
REMARK  125  A    between atoms: _312  and  _313
REMARK  126  A    between atoms: _312  and  _315
REMARK  127  A    between atoms: _315  and  _316
REMARK  128  A    between atoms: _319  and  _321
REMARK  129  A    between atoms: _321  and  _322
REMARK  130  A    between atoms: _321  and  _324
REMARK  131  A    between atoms: _324  and  _325
REMARK  132  A    between atoms: _328  and  _330
REMARK  133  A    between atoms: _330  and  _331
REMARK  134  A    between atoms: _330  and  _333
REMARK  135  A    between atoms: _333  and  _334
REMARK  136  A    between atoms: _337  and  _339
REMARK  137  A    between atoms: _339  and  _340
REMARK  138  A    between atoms: _339  and  _342
REMARK  139  A    between atoms: _342  and  _343
REMARK  140  A    between atoms: _346  and  _348
REMARK  141  A    between atoms: _348  and  _349
REMARK  142  A    between atoms: _351  and  _353
REMARK  143  A    between atoms: _353  and  _354
REMARK  144  A    between atoms: _357  and  _359
REMARK  145  A    between atoms: _359  and  _360
REMARK  146  A    between atoms: _359  and  _362
REMARK  147  A    between atoms: _362  and  _363
REMARK  148  A    between atoms: _366  and  _368
REMARK  149  A    between atoms: _368  and  _369
REMARK  150  A    between atoms: _368  and  _371
REMARK  151  A    between atoms: _371  and  _372
REMARK  152  A    between atoms: _377  and  _379
REMARK  153  A    between atoms: _379  and  _380
REMARK  154  A    between atoms: _379  and  _382
REMARK  155  A    between atoms: _382  and  _383
REMARK  156  A    between atoms: _386  and  _388
REMARK  157  A    between atoms: _388  and  _389
REMARK  158  A    between atoms: _388  and  _391
REMARK  159  A    between atoms: _394  and  _396
REMARK  160  A    between atoms: _396  and  _397
REMARK  161  A    between atoms: _396  and  _399
REMARK  162  A    between atoms: _399  and  _400
REMARK  163  A    between atoms: _400  and  _401
REMARK  164  A    between atoms: _401  and  _402
REMARK  165  A    between atoms: _402  and  _403
REMARK  166  A    between atoms: _407  and  _409
REMARK  167  A    between atoms: _409  and  _410
REMARK  168  A    between atoms: _409  and  _412
REMARK  169  A    between atoms: _412  and  _413
REMARK  170  A    between atoms: _413  and  _414
REMARK  171  A    between atoms: _416  and  _418
REMARK  172  A    between atoms: _418  and  _419
REMARK  173  A    between atoms: _418  and  _421
REMARK  174  A    between atoms: _421  and  _422
REMARK  175  A    between atoms: _425  and  _427
REMARK  176  A    between atoms: _427  and  _428
REMARK  177  A    between atoms: _430  and  _432
REMARK  178  A    between atoms: _432  and  _433
REMARK  179  A    between atoms: _435  and  _437
REMARK  180  A    between atoms: _437  and  _438
REMARK  181  A    between atoms: _437  and  _440
REMARK  182  A    between atoms: _440  and  _441
REMARK  183  A    between atoms: _444  and  _446
REMARK  184  A    between atoms: _446  and  _447
REMARK  185  A    between atoms: _449  and  _451
REMARK  186  A    between atoms: _451  and  _452
REMARK  187  A    between atoms: _454  and  _456
REMARK  188  A    between atoms: _456  and  _457
REMARK  189  A    between atoms: _456  and  _459
REMARK  190  A    between atoms: _459  and  _460
REMARK  191  A    between atoms: _466  and  _468
REMARK  192  A    between atoms: _468  and  _469
REMARK  193  A    between atoms: _468  and  _471
REMARK  194  A    between atoms: _471  and  _472
REMARK  195  A    between atoms: _475  and  _477
REMARK  196  A    between atoms: _477  and  _478
REMARK  197  A    between atoms: _477  and  _480
REMARK  198  A    between atoms: _483  and  _485
REMARK  199  A    between atoms: _485  and  _486
REMARK  200  A    between atoms: _485  and  _488
REMARK  201  A    between atoms: _488  and  _489
REMARK  202  A    between atoms: _492  and  _494
REMARK  203  A    between atoms: _494  and  _495
REMARK  204  A    between atoms: _494  and  _497
REMARK  205  A    between atoms: _497  and  _498
REMARK  206  A    between atoms: _502  and  _503
REMARK  207  A    between atoms: _508  and  _510
REMARK  208  A    between atoms: _510  and  _511
REMARK  209  A    between atoms: _510  and  _513
REMARK  210  A    between atoms: _516  and  _518
REMARK  211  A    between atoms: _518  and  _519
REMARK  212  A    between atoms: _518  and  _521
REMARK  213  A    between atoms: _521  and  _522
REMARK  214  A    between atoms: _527  and  _529
REMARK  215  A    between atoms: _529  and  _530
REMARK  216  A    between atoms: _529  and  _532
REMARK  217  A    between atoms: _532  and  _533
REMARK  218  A    between atoms: _536  and  _538
REMARK  219  A    between atoms: _538  and  _539
REMARK  220  A    between atoms: _541  and  _543
REMARK  221  A    between atoms: _543  and  _544
REMARK  222  A    between atoms: _543  and  _546
REMARK  223  A    between atoms: _546  and  _547
REMARK  224  A    between atoms: _547  and  _548
REMARK  225  A    between atoms: _548  and  _549
REMARK  226  A    between atoms: _558  and  _560
REMARK  227  A    between atoms: _560  and  _561
REMARK  228  A    between atoms: _560  and  _563
REMARK  229  A    between atoms: _563  and  _564
REMARK                            x       y       z     vdW  Elec       q    Type
REMARK                         _______ _______ _______ _____ _____    ______ ____
ROOT
ATOM      1  O   HOH     1      20.720  33.586  10.626  0.00  0.00    +0.000 OA
ENDROOT
TORSDOF 0
REMARK  Name = ../refined-set-2016/4hdb/4hdb_pocket.pdb
REMARK  229 active torsions:
REMARK  status: ('A' for Active; 'I' for Inactive)
REMARK    1  A    between atoms: _1  and  _3
REMARK    2  A    between atoms: _3  and  _4
REMARK    3  A    between atoms: _3  and  _6
REMARK    4  A    between atoms: _6  and  _7
REMARK    5  A    between atoms: _7  and  _8
REMARK    6  A    between atoms: _8  and  _9
REMARK    7  A    between atoms: _18  and  _20
REMARK    8  A    between atoms: _20  and  _21
REMARK    9  A    between atoms: _20  and  _23
REMARK   10  A    between atoms: _23  and  _24
REMARK   11  A    between atoms: _27  and  _29
REMARK   12  A    between atoms: _29  and  _30
REMARK   13  A    between atoms: _29  and  _32
REMARK   14  A    between atoms: _32  and  _33
REMARK   15  A    between atoms: _36  and  _38
REMARK   16  A    between atoms: _38  and  _39
REMARK   17  A    between atoms: _38  and  _41
REMARK   18  A    between atoms: _41  and  _42
REMARK   19  A    between atoms: _45  and  _47
REMARK   20  A    between atoms: _47  and  _48
REMARK   21  A    between atoms: _47  and  _50
REMARK   22  A    between atoms: _50  and  _51
REMARK   23  A    between atoms: _54  and  _56
REMARK   24  A    between atoms: _56  and  _57
REMARK   25  A    between atoms: _59  and  _61
REMARK   26  A    between atoms: _61  and  _62
REMARK   27  A    between atoms: _65  and  _67
REMARK   28  A    between atoms: _67  and  _68
REMARK   29  A    between atoms: _67  and  _70
REMARK   30  A    between atoms: _70  and  _71
REMARK   31  A    between atoms: _74  and  _76
REMARK   32  A    between atoms: _76  and  _77
REMARK   33  A    between atoms: _76  and  _79
REMARK   34  A    between atoms: _79  and  _80
REMARK   35  A    between atoms: _85  and  _87
REMARK   36  A    between atoms: _87  and  _88
REMARK   37  A    between atoms: _87  and  _90
REMARK   38  A    between atoms: _90  and  _91
REMARK   39  A    between atoms: _94  and  _96
REMARK   40  A    between atoms: _96  and  _97
REMARK   41  A    between atoms: _96  and  _99
REMARK   42  A    between atoms: _102  and  _104
REMARK   43  A    between atoms: _104  and  _105
REMARK   44  A    between atoms: _104  and  _107
REMARK   45  A    between atoms: _107  and  _108
REMARK   46  A    between atoms: _108  and  _109
REMARK   47  A    between atoms: _109  and  _110
REMARK   48  A    between atoms: _110  and  _111
REMARK   49  A    between atoms: _115  and  _117
REMARK   50  A    between atoms: _117  and  _118
REMARK   51  A    between atoms: _117  and  _120
REMARK   52  A    between atoms: _120  and  _121
REMARK   53  A    between atoms: _121  and  _122
REMARK   54  A    between atoms: _124  and  _126
REMARK   55  A    between atoms: _126  and  _127
REMARK   56  A    between atoms: _126  and  _129
REMARK   57  A    between atoms: _129  and  _130
REMARK   58  A    between atoms: _133  and  _135
REMARK   59  A    between atoms: _135  and  _136
REMARK   60  A    between atoms: _138  and  _140
REMARK   61  A    between atoms: _140  and  _141
REMARK   62  A    between atoms: _143  and  _145
REMARK   63  A    between atoms: _145  and  _146
REMARK   64  A    between atoms: _145  and  _148
REMARK   65  A    between atoms: _148  and  _149
REMARK   66  A    between atoms: _152  and  _154
REMARK   67  A    between atoms: _154  and  _155
REMARK   68  A    between atoms: _157  and  _159
REMARK   69  A    between atoms: _159  and  _160
REMARK   70  A    between atoms: _162  and  _164
REMARK   71  A    between atoms: _164  and  _165
REMARK   72  A    between atoms: _164  and  _167
REMARK   73  A    between atoms: _167  and  _168
REMARK   74  A    between atoms: _174  and  _176
REMARK   75  A    between atoms: _176  and  _177
REMARK   76  A    between atoms: _176  and  _179
REMARK   77  A    between atoms: _179  and  _180
REMARK   78  A    between atoms: _183  and  _185
REMARK   79  A    between atoms: _185  and  _186
REMARK   80  A    between atoms: _185  and  _188
REMARK   81  A    between atoms: _191  and  _193
REMARK   82  A    between atoms: _193  and  _194
REMARK   83  A    between atoms: _193  and  _196
REMARK   84  A    between atoms: _196  and  _197
REMARK   85  A    between atoms: _201  and  _202
REMARK   86  A    between atoms: _207  and  _209
REMARK   87  A    between atoms: _209  and  _210
REMARK   88  A    between atoms: _209  and  _212
REMARK   89  A    between atoms: _212  and  _213
REMARK   90  A    between atoms: _217  and  _218
REMARK   91  A    between atoms: _223  and  _225
REMARK   92  A    between atoms: _225  and  _226
REMARK   93  A    between atoms: _225  and  _228
REMARK   94  A    between atoms: _231  and  _233
REMARK   95  A    between atoms: _233  and  _234
REMARK   96  A    between atoms: _233  and  _236
REMARK   97  A    between atoms: _236  and  _237
REMARK   98  A    between atoms: _242  and  _244
REMARK   99  A    between atoms: _244  and  _245
REMARK  100  A    between atoms: _244  and  _247
REMARK  101  A    between atoms: _247  and  _248
REMARK  102  A    between atoms: _251  and  _253
REMARK  103  A    between atoms: _253  and  _254
REMARK  104  A    between atoms: _253  and  _256
REMARK  105  A    between atoms: _256  and  _257
REMARK  106  A    between atoms: _260  and  _262
REMARK  107  A    between atoms: _262  and  _263
REMARK  108  A    between atoms: _265  and  _267
REMARK  109  A    between atoms: _267  and  _268
REMARK  110  A    between atoms: _267  and  _270
REMARK  111  A    between atoms: _270  and  _271
REMARK  112  A    between atoms: _271  and  _272
REMARK  113  A    between atoms: _272  and  _273
REMARK  114  A    between atoms: _282  and  _284
REMARK  115  A    between atoms: _284  and  _285
REMARK  116  A    between atoms: _284  and  _287
REMARK  117  A    between atoms: _287  and  _288
REMARK  118  A    between atoms: _293  and  _295
REMARK  119  A    between atoms: _295  and  _296
REMARK  120  A    between atoms: _295  and  _298
REMARK  121  A    between atoms: _298  and  _299
REMARK  122  A    between atoms: _299  and  _300
REMARK  123  A    between atoms: _300  and  _301
REMARK  124  A    between atoms: _310  and  _312
REMARK  125  A    between atoms: _312  and  _313
REMARK  126  A    between atoms: _312  and  _315
REMARK  127  A    between atoms: _315  and  _316
REMARK  128  A    between atoms: _319  and  _321
REMARK  129  A    between atoms: _321  and  _322
REMARK  130  A    between atoms: _321  and  _324
REMARK  131  A    between atoms: _324  and  _325
REMARK  132  A    between atoms: _328  and  _330
REMARK  133  A    between atoms: _330  and  _331
REMARK  134  A    between atoms: _330  and  _333
REMARK  135  A    between atoms: _333  and  _334
REMARK  136  A    between atoms: _337  and  _339
REMARK  137  A    between atoms: _339  and  _340
REMARK  138  A    between atoms: _339  and  _342
REMARK  139  A    between atoms: _342  and  _343
REMARK  140  A    between atoms: _346  and  _348
REMARK  141  A    between atoms: _348  and  _349
REMARK  142  A    between atoms: _351  and  _353
REMARK  143  A    between atoms: _353  and  _354
REMARK  144  A    between atoms: _357  and  _359
REMARK  145  A    between atoms: _359  and  _360
REMARK  146  A    between atoms: _359  and  _362
REMARK  147  A    between atoms: _362  and  _363
REMARK  148  A    between atoms: _366  and  _368
REMARK  149  A    between atoms: _368  and  _369
REMARK  150  A    between atoms: _368  and  _371
REMARK  151  A    between atoms: _371  and  _372
REMARK  152  A    between atoms: _377  and  _379
REMARK  153  A    between atoms: _379  and  _380
REMARK  154  A    between atoms: _379  and  _382
REMARK  155  A    between atoms: _382  and  _383
REMARK  156  A    between atoms: _386  and  _388
REMARK  157  A    between atoms: _388  and  _389
REMARK  158  A    between atoms: _388  and  _391
REMARK  159  A    between atoms: _394  and  _396
REMARK  160  A    between atoms: _396  and  _397
REMARK  161  A    between atoms: _396  and  _399
REMARK  162  A    between atoms: _399  and  _400
REMARK  163  A    between atoms: _400  and  _401
REMARK  164  A    between atoms: _401  and  _402
REMARK  165  A    between atoms: _402  and  _403
REMARK  166  A    between atoms: _407  and  _409
REMARK  167  A    between atoms: _409  and  _410
REMARK  168  A    between atoms: _409  and  _412
REMARK  169  A    between atoms: _412  and  _413
REMARK  170  A    between atoms: _413  and  _414
REMARK  171  A    between atoms: _416  and  _418
REMARK  172  A    between atoms: _418  and  _419
REMARK  173  A    between atoms: _418  and  _421
REMARK  174  A    between atoms: _421  and  _422
REMARK  175  A    between atoms: _425  and  _427
REMARK  176  A    between atoms: _427  and  _428
REMARK  177  A    between atoms: _430  and  _432
REMARK  178  A    between atoms: _432  and  _433
REMARK  179  A    between atoms: _435  and  _437
REMARK  180  A    between atoms: _437  and  _438
REMARK  181  A    between atoms: _437  and  _440
REMARK  182  A    between atoms: _440  and  _441
REMARK  183  A    between atoms: _444  and  _446
REMARK  184  A    between atoms: _446  and  _447
REMARK  185  A    between atoms: _449  and  _451
REMARK  186  A    between atoms: _451  and  _452
REMARK  187  A    between atoms: _454  and  _456
REMARK  188  A    between atoms: _456  and  _457
REMARK  189  A    between atoms: _456  and  _459
REMARK  190  A    between atoms: _459  and  _460
REMARK  191  A    between atoms: _466  and  _468
REMARK  192  A    between atoms: _468  and  _469
REMARK  193  A    between atoms: _468  and  _471
REMARK  194  A    between atoms: _471  and  _472
REMARK  195  A    between atoms: _475  and  _477
REMARK  196  A    between atoms: _477  and  _478
REMARK  197  A    between atoms: _477  and  _480
REMARK  198  A    between atoms: _483  and  _485
REMARK  199  A    between atoms: _485  and  _486
REMARK  200  A    between atoms: _485  and  _488
REMARK  201  A    between atoms: _488  and  _489
REMARK  202  A    between atoms: _492  and  _494
REMARK  203  A    between atoms: _494  and  _495
REMARK  204  A    between atoms: _494  and  _497
REMARK  205  A    between atoms: _497  and  _498
REMARK  206  A    between atoms: _502  and  _503
REMARK  207  A    between atoms: _508  and  _510
REMARK  208  A    between atoms: _510  and  _511
REMARK  209  A    between atoms: _510  and  _513
REMARK  210  A    between atoms: _516  and  _518
REMARK  211  A    between atoms: _518  and  _519
REMARK  212  A    between atoms: _518  and  _521
REMARK  213  A    between atoms: _521  and  _522
REMARK  214  A    between atoms: _527  and  _529
REMARK  215  A    between atoms: _529  and  _530
REMARK  216  A    between atoms: _529  and  _532
REMARK  217  A    between atoms: _532  and  _533
REMARK  218  A    between atoms: _536  and  _538
REMARK  219  A    between atoms: _538  and  _539
REMARK  220  A    between atoms: _541  and  _543
REMARK  221  A    between atoms: _543  and  _544
REMARK  222  A    between atoms: _543  and  _546
REMARK  223  A    between atoms: _546  and  _547
REMARK  224  A    between atoms: _547  and  _548
REMARK  225  A    between atoms: _548  and  _549
REMARK  226  A    between atoms: _558  and  _560
REMARK  227  A    between atoms: _560  and  _561
REMARK  228  A    between atoms: _560  and  _563
REMARK  229  A    between atoms: _563  and  _564
REMARK                            x       y       z     vdW  Elec       q    Type
REMARK                         _______ _______ _______ _____ _____    ______ ____
ROOT
ATOM      1  O   HOH     1      18.394  30.795  21.595  0.00  0.00    +0.000 OA
ENDROOT
TORSDOF 0
REMARK  Name = ../refined-set-2016/4hdb/4hdb_pocket.pdb
REMARK  229 active torsions:
REMARK  status: ('A' for Active; 'I' for Inactive)
REMARK    1  A    between atoms: _1  and  _3
REMARK    2  A    between atoms: _3  and  _4
REMARK    3  A    between atoms: _3  and  _6
REMARK    4  A    between atoms: _6  and  _7
REMARK    5  A    between atoms: _7  and  _8
REMARK    6  A    between atoms: _8  and  _9
REMARK    7  A    between atoms: _18  and  _20
REMARK    8  A    between atoms: _20  and  _21
REMARK    9  A    between atoms: _20  and  _23
REMARK   10  A    between atoms: _23  and  _24
REMARK   11  A    between atoms: _27  and  _29
REMARK   12  A    between atoms: _29  and  _30
REMARK   13  A    between atoms: _29  and  _32
REMARK   14  A    between atoms: _32  and  _33
REMARK   15  A    between atoms: _36  and  _38
REMARK   16  A    between atoms: _38  and  _39
REMARK   17  A    between atoms: _38  and  _41
REMARK   18  A    between atoms: _41  and  _42
REMARK   19  A    between atoms: _45  and  _47
REMARK   20  A    between atoms: _47  and  _48
REMARK   21  A    between atoms: _47  and  _50
REMARK   22  A    between atoms: _50  and  _51
REMARK   23  A    between atoms: _54  and  _56
REMARK   24  A    between atoms: _56  and  _57
REMARK   25  A    between atoms: _59  and  _61
REMARK   26  A    between atoms: _61  and  _62
REMARK   27  A    between atoms: _65  and  _67
REMARK   28  A    between atoms: _67  and  _68
REMARK   29  A    between atoms: _67  and  _70
REMARK   30  A    between atoms: _70  and  _71
REMARK   31  A    between atoms: _74  and  _76
REMARK   32  A    between atoms: _76  and  _77
REMARK   33  A    between atoms: _76  and  _79
REMARK   34  A    between atoms: _79  and  _80
REMARK   35  A    between atoms: _85  and  _87
REMARK   36  A    between atoms: _87  and  _88
REMARK   37  A    between atoms: _87  and  _90
REMARK   38  A    between atoms: _90  and  _91
REMARK   39  A    between atoms: _94  and  _96
REMARK   40  A    between atoms: _96  and  _97
REMARK   41  A    between atoms: _96  and  _99
REMARK   42  A    between atoms: _102  and  _104
REMARK   43  A    between atoms: _104  and  _105
REMARK   44  A    between atoms: _104  and  _107
REMARK   45  A    between atoms: _107  and  _108
REMARK   46  A    between atoms: _108  and  _109
REMARK   47  A    between atoms: _109  and  _110
REMARK   48  A    between atoms: _110  and  _111
REMARK   49  A    between atoms: _115  and  _117
REMARK   50  A    between atoms: _117  and  _118
REMARK   51  A    between atoms: _117  and  _120
REMARK   52  A    between atoms: _120  and  _121
REMARK   53  A    between atoms: _121  and  _122
REMARK   54  A    between atoms: _124  and  _126
REMARK   55  A    between atoms: _126  and  _127
REMARK   56  A    between atoms: _126  and  _129
REMARK   57  A    between atoms: _129  and  _130
REMARK   58  A    between atoms: _133  and  _135
REMARK   59  A    between atoms: _135  and  _136
REMARK   60  A    between atoms: _138  and  _140
REMARK   61  A    between atoms: _140  and  _141
REMARK   62  A    between atoms: _143  and  _145
REMARK   63  A    between atoms: _145  and  _146
REMARK   64  A    between atoms: _145  and  _148
REMARK   65  A    between atoms: _148  and  _149
REMARK   66  A    between atoms: _152  and  _154
REMARK   67  A    between atoms: _154  and  _155
REMARK   68  A    between atoms: _157  and  _159
REMARK   69  A    between atoms: _159  and  _160
REMARK   70  A    between atoms: _162  and  _164
REMARK   71  A    between atoms: _164  and  _165
REMARK   72  A    between atoms: _164  and  _167
REMARK   73  A    between atoms: _167  and  _168
REMARK   74  A    between atoms: _174  and  _176
REMARK   75  A    between atoms: _176  and  _177
REMARK   76  A    between atoms: _176  and  _179
REMARK   77  A    between atoms: _179  and  _180
REMARK   78  A    between atoms: _183  and  _185
REMARK   79  A    between atoms: _185  and  _186
REMARK   80  A    between atoms: _185  and  _188
REMARK   81  A    between atoms: _191  and  _193
REMARK   82  A    between atoms: _193  and  _194
REMARK   83  A    between atoms: _193  and  _196
REMARK   84  A    between atoms: _196  and  _197
REMARK   85  A    between atoms: _201  and  _202
REMARK   86  A    between atoms: _207  and  _209
REMARK   87  A    between atoms: _209  and  _210
REMARK   88  A    between atoms: _209  and  _212
REMARK   89  A    between atoms: _212  and  _213
REMARK   90  A    between atoms: _217  and  _218
REMARK   91  A    between atoms: _223  and  _225
REMARK   92  A    between atoms: _225  and  _226
REMARK   93  A    between atoms: _225  and  _228
REMARK   94  A    between atoms: _231  and  _233
REMARK   95  A    between atoms: _233  and  _234
REMARK   96  A    between atoms: _233  and  _236
REMARK   97  A    between atoms: _236  and  _237
REMARK   98  A    between atoms: _242  and  _244
REMARK   99  A    between atoms: _244  and  _245
REMARK  100  A    between atoms: _244  and  _247
REMARK  101  A    between atoms: _247  and  _248
REMARK  102  A    between atoms: _251  and  _253
REMARK  103  A    between atoms: _253  and  _254
REMARK  104  A    between atoms: _253  and  _256
REMARK  105  A    between atoms: _256  and  _257
REMARK  106  A    between atoms: _260  and  _262
REMARK  107  A    between atoms: _262  and  _263
REMARK  108  A    between atoms: _265  and  _267
REMARK  109  A    between atoms: _267  and  _268
REMARK  110  A    between atoms: _267  and  _270
REMARK  111  A    between atoms: _270  and  _271
REMARK  112  A    between atoms: _271  and  _272
REMARK  113  A    between atoms: _272  and  _273
REMARK  114  A    between atoms: _282  and  _284
REMARK  115  A    between atoms: _284  and  _285
REMARK  116  A    between atoms: _284  and  _287
REMARK  117  A    between atoms: _287  and  _288
REMARK  118  A    between atoms: _293  and  _295
REMARK  119  A    between atoms: _295  and  _296
REMARK  120  A    between atoms: _295  and  _298
REMARK  121  A    between atoms: _298  and  _299
REMARK  122  A    between atoms: _299  and  _300
REMARK  123  A    between atoms: _300  and  _301
REMARK  124  A    between atoms: _310  and  _312
REMARK  125  A    between atoms: _312  and  _313
REMARK  126  A    between atoms: _312  and  _315
REMARK  127  A    between atoms: _315  and  _316
REMARK  128  A    between atoms: _319  and  _321
REMARK  129  A    between atoms: _321  and  _322
REMARK  130  A    between atoms: _321  and  _324
REMARK  131  A    between atoms: _324  and  _325
REMARK  132  A    between atoms: _328  and  _330
REMARK  133  A    between atoms: _330  and  _331
REMARK  134  A    between atoms: _330  and  _333
REMARK  135  A    between atoms: _333  and  _334
REMARK  136  A    between atoms: _337  and  _339
REMARK  137  A    between atoms: _339  and  _340
REMARK  138  A    between atoms: _339  and  _342
REMARK  139  A    between atoms: _342  and  _343
REMARK  140  A    between atoms: _346  and  _348
REMARK  141  A    between atoms: _348  and  _349
REMARK  142  A    between atoms: _351  and  _353
REMARK  143  A    between atoms: _353  and  _354
REMARK  144  A    between atoms: _357  and  _359
REMARK  145  A    between atoms: _359  and  _360
REMARK  146  A    between atoms: _359  and  _362
REMARK  147  A    between atoms: _362  and  _363
REMARK  148  A    between atoms: _366  and  _368
REMARK  149  A    between atoms: _368  and  _369
REMARK  150  A    between atoms: _368  and  _371
REMARK  151  A    between atoms: _371  and  _372
REMARK  152  A    between atoms: _377  and  _379
REMARK  153  A    between atoms: _379  and  _380
REMARK  154  A    between atoms: _379  and  _382
REMARK  155  A    between atoms: _382  and  _383
REMARK  156  A    between atoms: _386  and  _388
REMARK  157  A    between atoms: _388  and  _389
REMARK  158  A    between atoms: _388  and  _391
REMARK  159  A    between atoms: _394  and  _396
REMARK  160  A    between atoms: _396  and  _397
REMARK  161  A    between atoms: _396  and  _399
REMARK  162  A    between atoms: _399  and  _400
REMARK  163  A    between atoms: _400  and  _401
REMARK  164  A    between atoms: _401  and  _402
REMARK  165  A    between atoms: _402  and  _403
REMARK  166  A    between atoms: _407  and  _409
REMARK  167  A    between atoms: _409  and  _410
REMARK  168  A    between atoms: _409  and  _412
REMARK  169  A    between atoms: _412  and  _413
REMARK  170  A    between atoms: _413  and  _414
REMARK  171  A    between atoms: _416  and  _418
REMARK  172  A    between atoms: _418  and  _419
REMARK  173  A    between atoms: _418  and  _421
REMARK  174  A    between atoms: _421  and  _422
REMARK  175  A    between atoms: _425  and  _427
REMARK  176  A    between atoms: _427  and  _428
REMARK  177  A    between atoms: _430  and  _432
REMARK  178  A    between atoms: _432  and  _433
REMARK  179  A    between atoms: _435  and  _437
REMARK  180  A    between atoms: _437  and  _438
REMARK  181  A    between atoms: _437  and  _440
REMARK  182  A    between atoms: _440  and  _441
REMARK  183  A    between atoms: _444  and  _446
REMARK  184  A    between atoms: _446  and  _447
REMARK  185  A    between atoms: _449  and  _451
REMARK  186  A    between atoms: _451  and  _452
REMARK  187  A    between atoms: _454  and  _456
REMARK  188  A    between atoms: _456  and  _457
REMARK  189  A    between atoms: _456  and  _459
REMARK  190  A    between atoms: _459  and  _460
REMARK  191  A    between atoms: _466  and  _468
REMARK  192  A    between atoms: _468  and  _469
REMARK  193  A    between atoms: _468  and  _471
REMARK  194  A    between atoms: _471  and  _472
REMARK  195  A    between atoms: _475  and  _477
REMARK  196  A    between atoms: _477  and  _478
REMARK  197  A    between atoms: _477  and  _480
REMARK  198  A    between atoms: _483  and  _485
REMARK  199  A    between atoms: _485  and  _486
REMARK  200  A    between atoms: _485  and  _488
REMARK  201  A    between atoms: _488  and  _489
REMARK  202  A    between atoms: _492  and  _494
REMARK  203  A    between atoms: _494  and  _495
REMARK  204  A    between atoms: _494  and  _497
REMARK  205  A    between atoms: _497  and  _498
REMARK  206  A    between atoms: _502  and  _503
REMARK  207  A    between atoms: _508  and  _510
REMARK  208  A    between atoms: _510  and  _511
REMARK  209  A    between atoms: _510  and  _513
REMARK  210  A    between atoms: _516  and  _518
REMARK  211  A    between atoms: _518  and  _519
REMARK  212  A    between atoms: _518  and  _521
REMARK  213  A    between atoms: _521  and  _522
REMARK  214  A    between atoms: _527  and  _529
REMARK  215  A    between atoms: _529  and  _530
REMARK  216  A    between atoms: _529  and  _532
REMARK  217  A    between atoms: _532  and  _533
REMARK  218  A    between atoms: _536  and  _538
REMARK  219  A    between atoms: _538  and  _539
REMARK  220  A    between atoms: _541  and  _543
REMARK  221  A    between atoms: _543  and  _544
REMARK  222  A    between atoms: _543  and  _546
REMARK  223  A    between atoms: _546  and  _547
REMARK  224  A    between atoms: _547  and  _548
REMARK  225  A    between atoms: _548  and  _549
REMARK  226  A    between atoms: _558  and  _560
REMARK  227  A    between atoms: _560  and  _561
REMARK  228  A    between atoms: _560  and  _563
REMARK  229  A    between atoms: _563  and  _564
REMARK                            x       y       z     vdW  Elec       q    Type
REMARK                         _______ _______ _______ _____ _____    ______ ____
ROOT
ATOM      1  O   HOH     1      20.234  28.785  21.315  0.00  0.00    +0.000 OA
ENDROOT
TORSDOF 0
REMARK  Name = ../refined-set-2016/4hdb/4hdb_pocket.pdb
REMARK  229 active torsions:
REMARK  status: ('A' for Active; 'I' for Inactive)
REMARK    1  A    between atoms: _1  and  _3
REMARK    2  A    between atoms: _3  and  _4
REMARK    3  A    between atoms: _3  and  _6
REMARK    4  A    between atoms: _6  and  _7
REMARK    5  A    between atoms: _7  and  _8
REMARK    6  A    between atoms: _8  and  _9
REMARK    7  A    between atoms: _18  and  _20
REMARK    8  A    between atoms: _20  and  _21
REMARK    9  A    between atoms: _20  and  _23
REMARK   10  A    between atoms: _23  and  _24
REMARK   11  A    between atoms: _27  and  _29
REMARK   12  A    between atoms: _29  and  _30
REMARK   13  A    between atoms: _29  and  _32
REMARK   14  A    between atoms: _32  and  _33
REMARK   15  A    between atoms: _36  and  _38
REMARK   16  A    between atoms: _38  and  _39
REMARK   17  A    between atoms: _38  and  _41
REMARK   18  A    between atoms: _41  and  _42
REMARK   19  A    between atoms: _45  and  _47
REMARK   20  A    between atoms: _47  and  _48
REMARK   21  A    between atoms: _47  and  _50
REMARK   22  A    between atoms: _50  and  _51
REMARK   23  A    between atoms: _54  and  _56
REMARK   24  A    between atoms: _56  and  _57
REMARK   25  A    between atoms: _59  and  _61
REMARK   26  A    between atoms: _61  and  _62
REMARK   27  A    between atoms: _65  and  _67
REMARK   28  A    between atoms: _67  and  _68
REMARK   29  A    between atoms: _67  and  _70
REMARK   30  A    between atoms: _70  and  _71
REMARK   31  A    between atoms: _74  and  _76
REMARK   32  A    between atoms: _76  and  _77
REMARK   33  A    between atoms: _76  and  _79
REMARK   34  A    between atoms: _79  and  _80
REMARK   35  A    between atoms: _85  and  _87
REMARK   36  A    between atoms: _87  and  _88
REMARK   37  A    between atoms: _87  and  _90
REMARK   38  A    between atoms: _90  and  _91
REMARK   39  A    between atoms: _94  and  _96
REMARK   40  A    between atoms: _96  and  _97
REMARK   41  A    between atoms: _96  and  _99
REMARK   42  A    between atoms: _102  and  _104
REMARK   43  A    between atoms: _104  and  _105
REMARK   44  A    between atoms: _104  and  _107
REMARK   45  A    between atoms: _107  and  _108
REMARK   46  A    between atoms: _108  and  _109
REMARK   47  A    between atoms: _109  and  _110
REMARK   48  A    between atoms: _110  and  _111
REMARK   49  A    between atoms: _115  and  _117
REMARK   50  A    between atoms: _117  and  _118
REMARK   51  A    between atoms: _117  and  _120
REMARK   52  A    between atoms: _120  and  _121
REMARK   53  A    between atoms: _121  and  _122
REMARK   54  A    between atoms: _124  and  _126
REMARK   55  A    between atoms: _126  and  _127
REMARK   56  A    between atoms: _126  and  _129
REMARK   57  A    between atoms: _129  and  _130
REMARK   58  A    between atoms: _133  and  _135
REMARK   59  A    between atoms: _135  and  _136
REMARK   60  A    between atoms: _138  and  _140
REMARK   61  A    between atoms: _140  and  _141
REMARK   62  A    between atoms: _143  and  _145
REMARK   63  A    between atoms: _145  and  _146
REMARK   64  A    between atoms: _145  and  _148
REMARK   65  A    between atoms: _148  and  _149
REMARK   66  A    between atoms: _152  and  _154
REMARK   67  A    between atoms: _154  and  _155
REMARK   68  A    between atoms: _157  and  _159
REMARK   69  A    between atoms: _159  and  _160
REMARK   70  A    between atoms: _162  and  _164
REMARK   71  A    between atoms: _164  and  _165
REMARK   72  A    between atoms: _164  and  _167
REMARK   73  A    between atoms: _167  and  _168
REMARK   74  A    between atoms: _174  and  _176
REMARK   75  A    between atoms: _176  and  _177
REMARK   76  A    between atoms: _176  and  _179
REMARK   77  A    between atoms: _179  and  _180
REMARK   78  A    between atoms: _183  and  _185
REMARK   79  A    between atoms: _185  and  _186
REMARK   80  A    between atoms: _185  and  _188
REMARK   81  A    between atoms: _191  and  _193
REMARK   82  A    between atoms: _193  and  _194
REMARK   83  A    between atoms: _193  and  _196
REMARK   84  A    between atoms: _196  and  _197
REMARK   85  A    between atoms: _201  and  _202
REMARK   86  A    between atoms: _207  and  _209
REMARK   87  A    between atoms: _209  and  _210
REMARK   88  A    between atoms: _209  and  _212
REMARK   89  A    between atoms: _212  and  _213
REMARK   90  A    between atoms: _217  and  _218
REMARK   91  A    between atoms: _223  and  _225
REMARK   92  A    between atoms: _225  and  _226
REMARK   93  A    between atoms: _225  and  _228
REMARK   94  A    between atoms: _231  and  _233
REMARK   95  A    between atoms: _233  and  _234
REMARK   96  A    between atoms: _233  and  _236
REMARK   97  A    between atoms: _236  and  _237
REMARK   98  A    between atoms: _242  and  _244
REMARK   99  A    between atoms: _244  and  _245
REMARK  100  A    between atoms: _244  and  _247
REMARK  101  A    between atoms: _247  and  _248
REMARK  102  A    between atoms: _251  and  _253
REMARK  103  A    between atoms: _253  and  _254
REMARK  104  A    between atoms: _253  and  _256
REMARK  105  A    between atoms: _256  and  _257
REMARK  106  A    between atoms: _260  and  _262
REMARK  107  A    between atoms: _262  and  _263
REMARK  108  A    between atoms: _265  and  _267
REMARK  109  A    between atoms: _267  and  _268
REMARK  110  A    between atoms: _267  and  _270
REMARK  111  A    between atoms: _270  and  _271
REMARK  112  A    between atoms: _271  and  _272
REMARK  113  A    between atoms: _272  and  _273
REMARK  114  A    between atoms: _282  and  _284
REMARK  115  A    between atoms: _284  and  _285
REMARK  116  A    between atoms: _284  and  _287
REMARK  117  A    between atoms: _287  and  _288
REMARK  118  A    between atoms: _293  and  _295
REMARK  119  A    between atoms: _295  and  _296
REMARK  120  A    between atoms: _295  and  _298
REMARK  121  A    between atoms: _298  and  _299
REMARK  122  A    between atoms: _299  and  _300
REMARK  123  A    between atoms: _300  and  _301
REMARK  124  A    between atoms: _310  and  _312
REMARK  125  A    between atoms: _312  and  _313
REMARK  126  A    between atoms: _312  and  _315
REMARK  127  A    between atoms: _315  and  _316
REMARK  128  A    between atoms: _319  and  _321
REMARK  129  A    between atoms: _321  and  _322
REMARK  130  A    between atoms: _321  and  _324
REMARK  131  A    between atoms: _324  and  _325
REMARK  132  A    between atoms: _328  and  _330
REMARK  133  A    between atoms: _330  and  _331
REMARK  134  A    between atoms: _330  and  _333
REMARK  135  A    between atoms: _333  and  _334
REMARK  136  A    between atoms: _337  and  _339
REMARK  137  A    between atoms: _339  and  _340
REMARK  138  A    between atoms: _339  and  _342
REMARK  139  A    between atoms: _342  and  _343
REMARK  140  A    between atoms: _346  and  _348
REMARK  141  A    between atoms: _348  and  _349
REMARK  142  A    between atoms: _351  and  _353
REMARK  143  A    between atoms: _353  and  _354
REMARK  144  A    between atoms: _357  and  _359
REMARK  145  A    between atoms: _359  and  _360
REMARK  146  A    between atoms: _359  and  _362
REMARK  147  A    between atoms: _362  and  _363
REMARK  148  A    between atoms: _366  and  _368
REMARK  149  A    between atoms: _368  and  _369
REMARK  150  A    between atoms: _368  and  _371
REMARK  151  A    between atoms: _371  and  _372
REMARK  152  A    between atoms: _377  and  _379
REMARK  153  A    between atoms: _379  and  _380
REMARK  154  A    between atoms: _379  and  _382
REMARK  155  A    between atoms: _382  and  _383
REMARK  156  A    between atoms: _386  and  _388
REMARK  157  A    between atoms: _388  and  _389
REMARK  158  A    between atoms: _388  and  _391
REMARK  159  A    between atoms: _394  and  _396
REMARK  160  A    between atoms: _396  and  _397
REMARK  161  A    between atoms: _396  and  _399
REMARK  162  A    between atoms: _399  and  _400
REMARK  163  A    between atoms: _400  and  _401
REMARK  164  A    between atoms: _401  and  _402
REMARK  165  A    between atoms: _402  and  _403
REMARK  166  A    between atoms: _407  and  _409
REMARK  167  A    between atoms: _409  and  _410
REMARK  168  A    between atoms: _409  and  _412
REMARK  169  A    between atoms: _412  and  _413
REMARK  170  A    between atoms: _413  and  _414
REMARK  171  A    between atoms: _416  and  _418
REMARK  172  A    between atoms: _418  and  _419
REMARK  173  A    between atoms: _418  and  _421
REMARK  174  A    between atoms: _421  and  _422
REMARK  175  A    between atoms: _425  and  _427
REMARK  176  A    between atoms: _427  and  _428
REMARK  177  A    between atoms: _430  and  _432
REMARK  178  A    between atoms: _432  and  _433
REMARK  179  A    between atoms: _435  and  _437
REMARK  180  A    between atoms: _437  and  _438
REMARK  181  A    between atoms: _437  and  _440
REMARK  182  A    between atoms: _440  and  _441
REMARK  183  A    between atoms: _444  and  _446
REMARK  184  A    between atoms: _446  and  _447
REMARK  185  A    between atoms: _449  and  _451
REMARK  186  A    between atoms: _451  and  _452
REMARK  187  A    between atoms: _454  and  _456
REMARK  188  A    between atoms: _456  and  _457
REMARK  189  A    between atoms: _456  and  _459
REMARK  190  A    between atoms: _459  and  _460
REMARK  191  A    between atoms: _466  and  _468
REMARK  192  A    between atoms: _468  and  _469
REMARK  193  A    between atoms: _468  and  _471
REMARK  194  A    between atoms: _471  and  _472
REMARK  195  A    between atoms: _475  and  _477
REMARK  196  A    between atoms: _477  and  _478
REMARK  197  A    between atoms: _477  and  _480
REMARK  198  A    between atoms: _483  and  _485
REMARK  199  A    between atoms: _485  and  _486
REMARK  200  A    between atoms: _485  and  _488
REMARK  201  A    between atoms: _488  and  _489
REMARK  202  A    between atoms: _492  and  _494
REMARK  203  A    between atoms: _494  and  _495
REMARK  204  A    between atoms: _494  and  _497
REMARK  205  A    between atoms: _497  and  _498
REMARK  206  A    between atoms: _502  and  _503
REMARK  207  A    between atoms: _508  and  _510
REMARK  208  A    between atoms: _510  and  _511
REMARK  209  A    between atoms: _510  and  _513
REMARK  210  A    between atoms: _516  and  _518
REMARK  211  A    between atoms: _518  and  _519
REMARK  212  A    between atoms: _518  and  _521
REMARK  213  A    between atoms: _521  and  _522
REMARK  214  A    between atoms: _527  and  _529
REMARK  215  A    between atoms: _529  and  _530
REMARK  216  A    between atoms: _529  and  _532
REMARK  217  A    between atoms: _532  and  _533
REMARK  218  A    between atoms: _536  and  _538
REMARK  219  A    between atoms: _538  and  _539
REMARK  220  A    between atoms: _541  and  _543
REMARK  221  A    between atoms: _543  and  _544
REMARK  222  A    between atoms: _543  and  _546
REMARK  223  A    between atoms: _546  and  _547
REMARK  224  A    between atoms: _547  and  _548
REMARK  225  A    between atoms: _548  and  _549
REMARK  226  A    between atoms: _558  and  _560
REMARK  227  A    between atoms: _560  and  _561
REMARK  228  A    between atoms: _560  and  _563
REMARK  229  A    between atoms: _563  and  _564
REMARK                            x       y       z     vdW  Elec       q    Type
REMARK                         _______ _______ _______ _____ _____    ______ ____
ROOT
ATOM      1  O   HOH     1      26.036  26.259  16.016  0.00  0.00    +0.000 OA
ENDROOT
TORSDOF 0
REMARK  Name = ../refined-set-2016/4hdb/4hdb_pocket.pdb
REMARK  229 active torsions:
REMARK  status: ('A' for Active; 'I' for Inactive)
REMARK    1  A    between atoms: _1  and  _3
REMARK    2  A    between atoms: _3  and  _4
REMARK    3  A    between atoms: _3  and  _6
REMARK    4  A    between atoms: _6  and  _7
REMARK    5  A    between atoms: _7  and  _8
REMARK    6  A    between atoms: _8  and  _9
REMARK    7  A    between atoms: _18  and  _20
REMARK    8  A    between atoms: _20  and  _21
REMARK    9  A    between atoms: _20  and  _23
REMARK   10  A    between atoms: _23  and  _24
REMARK   11  A    between atoms: _27  and  _29
REMARK   12  A    between atoms: _29  and  _30
REMARK   13  A    between atoms: _29  and  _32
REMARK   14  A    between atoms: _32  and  _33
REMARK   15  A    between atoms: _36  and  _38
REMARK   16  A    between atoms: _38  and  _39
REMARK   17  A    between atoms: _38  and  _41
REMARK   18  A    between atoms: _41  and  _42
REMARK   19  A    between atoms: _45  and  _47
REMARK   20  A    between atoms: _47  and  _48
REMARK   21  A    between atoms: _47  and  _50
REMARK   22  A    between atoms: _50  and  _51
REMARK   23  A    between atoms: _54  and  _56
REMARK   24  A    between atoms: _56  and  _57
REMARK   25  A    between atoms: _59  and  _61
REMARK   26  A    between atoms: _61  and  _62
REMARK   27  A    between atoms: _65  and  _67
REMARK   28  A    between atoms: _67  and  _68
REMARK   29  A    between atoms: _67  and  _70
REMARK   30  A    between atoms: _70  and  _71
REMARK   31  A    between atoms: _74  and  _76
REMARK   32  A    between atoms: _76  and  _77
REMARK   33  A    between atoms: _76  and  _79
REMARK   34  A    between atoms: _79  and  _80
REMARK   35  A    between atoms: _85  and  _87
REMARK   36  A    between atoms: _87  and  _88
REMARK   37  A    between atoms: _87  and  _90
REMARK   38  A    between atoms: _90  and  _91
REMARK   39  A    between atoms: _94  and  _96
REMARK   40  A    between atoms: _96  and  _97
REMARK   41  A    between atoms: _96  and  _99
REMARK   42  A    between atoms: _102  and  _104
REMARK   43  A    between atoms: _104  and  _105
REMARK   44  A    between atoms: _104  and  _107
REMARK   45  A    between atoms: _107  and  _108
REMARK   46  A    between atoms: _108  and  _109
REMARK   47  A    between atoms: _109  and  _110
REMARK   48  A    between atoms: _110  and  _111
REMARK   49  A    between atoms: _115  and  _117
REMARK   50  A    between atoms: _117  and  _118
REMARK   51  A    between atoms: _117  and  _120
REMARK   52  A    between atoms: _120  and  _121
REMARK   53  A    between atoms: _121  and  _122
REMARK   54  A    between atoms: _124  and  _126
REMARK   55  A    between atoms: _126  and  _127
REMARK   56  A    between atoms: _126  and  _129
REMARK   57  A    between atoms: _129  and  _130
REMARK   58  A    between atoms: _133  and  _135
REMARK   59  A    between atoms: _135  and  _136
REMARK   60  A    between atoms: _138  and  _140
REMARK   61  A    between atoms: _140  and  _141
REMARK   62  A    between atoms: _143  and  _145
REMARK   63  A    between atoms: _145  and  _146
REMARK   64  A    between atoms: _145  and  _148
REMARK   65  A    between atoms: _148  and  _149
REMARK   66  A    between atoms: _152  and  _154
REMARK   67  A    between atoms: _154  and  _155
REMARK   68  A    between atoms: _157  and  _159
REMARK   69  A    between atoms: _159  and  _160
REMARK   70  A    between atoms: _162  and  _164
REMARK   71  A    between atoms: _164  and  _165
REMARK   72  A    between atoms: _164  and  _167
REMARK   73  A    between atoms: _167  and  _168
REMARK   74  A    between atoms: _174  and  _176
REMARK   75  A    between atoms: _176  and  _177
REMARK   76  A    between atoms: _176  and  _179
REMARK   77  A    between atoms: _179  and  _180
REMARK   78  A    between atoms: _183  and  _185
REMARK   79  A    between atoms: _185  and  _186
REMARK   80  A    between atoms: _185  and  _188
REMARK   81  A    between atoms: _191  and  _193
REMARK   82  A    between atoms: _193  and  _194
REMARK   83  A    between atoms: _193  and  _196
REMARK   84  A    between atoms: _196  and  _197
REMARK   85  A    between atoms: _201  and  _202
REMARK   86  A    between atoms: _207  and  _209
REMARK   87  A    between atoms: _209  and  _210
REMARK   88  A    between atoms: _209  and  _212
REMARK   89  A    between atoms: _212  and  _213
REMARK   90  A    between atoms: _217  and  _218
REMARK   91  A    between atoms: _223  and  _225
REMARK   92  A    between atoms: _225  and  _226
REMARK   93  A    between atoms: _225  and  _228
REMARK   94  A    between atoms: _231  and  _233
REMARK   95  A    between atoms: _233  and  _234
REMARK   96  A    between atoms: _233  and  _236
REMARK   97  A    between atoms: _236  and  _237
REMARK   98  A    between atoms: _242  and  _244
REMARK   99  A    between atoms: _244  and  _245
REMARK  100  A    between atoms: _244  and  _247
REMARK  101  A    between atoms: _247  and  _248
REMARK  102  A    between atoms: _251  and  _253
REMARK  103  A    between atoms: _253  and  _254
REMARK  104  A    between atoms: _253  and  _256
REMARK  105  A    between atoms: _256  and  _257
REMARK  106  A    between atoms: _260  and  _262
REMARK  107  A    between atoms: _262  and  _263
REMARK  108  A    between atoms: _265  and  _267
REMARK  109  A    between atoms: _267  and  _268
REMARK  110  A    between atoms: _267  and  _270
REMARK  111  A    between atoms: _270  and  _271
REMARK  112  A    between atoms: _271  and  _272
REMARK  113  A    between atoms: _272  and  _273
REMARK  114  A    between atoms: _282  and  _284
REMARK  115  A    between atoms: _284  and  _285
REMARK  116  A    between atoms: _284  and  _287
REMARK  117  A    between atoms: _287  and  _288
REMARK  118  A    between atoms: _293  and  _295
REMARK  119  A    between atoms: _295  and  _296
REMARK  120  A    between atoms: _295  and  _298
REMARK  121  A    between atoms: _298  and  _299
REMARK  122  A    between atoms: _299  and  _300
REMARK  123  A    between atoms: _300  and  _301
REMARK  124  A    between atoms: _310  and  _312
REMARK  125  A    between atoms: _312  and  _313
REMARK  126  A    between atoms: _312  and  _315
REMARK  127  A    between atoms: _315  and  _316
REMARK  128  A    between atoms: _319  and  _321
REMARK  129  A    between atoms: _321  and  _322
REMARK  130  A    between atoms: _321  and  _324
REMARK  131  A    between atoms: _324  and  _325
REMARK  132  A    between atoms: _328  and  _330
REMARK  133  A    between atoms: _330  and  _331
REMARK  134  A    between atoms: _330  and  _333
REMARK  135  A    between atoms: _333  and  _334
REMARK  136  A    between atoms: _337  and  _339
REMARK  137  A    between atoms: _339  and  _340
REMARK  138  A    between atoms: _339  and  _342
REMARK  139  A    between atoms: _342  and  _343
REMARK  140  A    between atoms: _346  and  _348
REMARK  141  A    between atoms: _348  and  _349
REMARK  142  A    between atoms: _351  and  _353
REMARK  143  A    between atoms: _353  and  _354
REMARK  144  A    between atoms: _357  and  _359
REMARK  145  A    between atoms: _359  and  _360
REMARK  146  A    between atoms: _359  and  _362
REMARK  147  A    between atoms: _362  and  _363
REMARK  148  A    between atoms: _366  and  _368
REMARK  149  A    between atoms: _368  and  _369
REMARK  150  A    between atoms: _368  and  _371
REMARK  151  A    between atoms: _371  and  _372
REMARK  152  A    between atoms: _377  and  _379
REMARK  153  A    between atoms: _379  and  _380
REMARK  154  A    between atoms: _379  and  _382
REMARK  155  A    between atoms: _382  and  _383
REMARK  156  A    between atoms: _386  and  _388
REMARK  157  A    between atoms: _388  and  _389
REMARK  158  A    between atoms: _388  and  _391
REMARK  159  A    between atoms: _394  and  _396
REMARK  160  A    between atoms: _396  and  _397
REMARK  161  A    between atoms: _396  and  _399
REMARK  162  A    between atoms: _399  and  _400
REMARK  163  A    between atoms: _400  and  _401
REMARK  164  A    between atoms: _401  and  _402
REMARK  165  A    between atoms: _402  and  _403
REMARK  166  A    between atoms: _407  and  _409
REMARK  167  A    between atoms: _409  and  _410
REMARK  168  A    between atoms: _409  and  _412
REMARK  169  A    between atoms: _412  and  _413
REMARK  170  A    between atoms: _413  and  _414
REMARK  171  A    between atoms: _416  and  _418
REMARK  172  A    between atoms: _418  and  _419
REMARK  173  A    between atoms: _418  and  _421
REMARK  174  A    between atoms: _421  and  _422
REMARK  175  A    between atoms: _425  and  _427
REMARK  176  A    between atoms: _427  and  _428
REMARK  177  A    between atoms: _430  and  _432
REMARK  178  A    between atoms: _432  and  _433
REMARK  179  A    between atoms: _435  and  _437
REMARK  180  A    between atoms: _437  and  _438
REMARK  181  A    between atoms: _437  and  _440
REMARK  182  A    between atoms: _440  and  _441
REMARK  183  A    between atoms: _444  and  _446
REMARK  184  A    between atoms: _446  and  _447
REMARK  185  A    between atoms: _449  and  _451
REMARK  186  A    between atoms: _451  and  _452
REMARK  187  A    between atoms: _454  and  _456
REMARK  188  A    between atoms: _456  and  _457
REMARK  189  A    between atoms: _456  and  _459
REMARK  190  A    between atoms: _459  and  _460
REMARK  191  A    between atoms: _466  and  _468
REMARK  192  A    between atoms: _468  and  _469
REMARK  193  A    between atoms: _468  and  _471
REMARK  194  A    between atoms: _471  and  _472
REMARK  195  A    between atoms: _475  and  _477
REMARK  196  A    between atoms: _477  and  _478
REMARK  197  A    between atoms: _477  and  _480
REMARK  198  A    between atoms: _483  and  _485
REMARK  199  A    between atoms: _485  and  _486
REMARK  200  A    between atoms: _485  and  _488
REMARK  201  A    between atoms: _488  and  _489
REMARK  202  A    between atoms: _492  and  _494
REMARK  203  A    between atoms: _494  and  _495
REMARK  204  A    between atoms: _494  and  _497
REMARK  205  A    between atoms: _497  and  _498
REMARK  206  A    between atoms: _502  and  _503
REMARK  207  A    between atoms: _508  and  _510
REMARK  208  A    between atoms: _510  and  _511
REMARK  209  A    between atoms: _510  and  _513
REMARK  210  A    between atoms: _516  and  _518
REMARK  211  A    between atoms: _518  and  _519
REMARK  212  A    between atoms: _518  and  _521
REMARK  213  A    between atoms: _521  and  _522
REMARK  214  A    between atoms: _527  and  _529
REMARK  215  A    between atoms: _529  and  _530
REMARK  216  A    between atoms: _529  and  _532
REMARK  217  A    between atoms: _532  and  _533
REMARK  218  A    between atoms: _536  and  _538
REMARK  219  A    between atoms: _538  and  _539
REMARK  220  A    between atoms: _541  and  _543
REMARK  221  A    between atoms: _543  and  _544
REMARK  222  A    between atoms: _543  and  _546
REMARK  223  A    between atoms: _546  and  _547
REMARK  224  A    between atoms: _547  and  _548
REMARK  225  A    between atoms: _548  and  _549
REMARK  226  A    between atoms: _558  and  _560
REMARK  227  A    between atoms: _560  and  _561
REMARK  228  A    between atoms: _560  and  _563
REMARK  229  A    between atoms: _563  and  _564
REMARK                            x       y       z     vdW  Elec       q    Type
REMARK                         _______ _______ _______ _____ _____    ______ ____
ROOT
ATOM      1  O   HOH     1      21.050  35.700  17.609  0.00  0.00    +0.000 OA
ENDROOT
TORSDOF 0
REMARK  Name = ../refined-set-2016/4hdb/4hdb_pocket.pdb
REMARK  229 active torsions:
REMARK  status: ('A' for Active; 'I' for Inactive)
REMARK    1  A    between atoms: _1  and  _3
REMARK    2  A    between atoms: _3  and  _4
REMARK    3  A    between atoms: _3  and  _6
REMARK    4  A    between atoms: _6  and  _7
REMARK    5  A    between atoms: _7  and  _8
REMARK    6  A    between atoms: _8  and  _9
REMARK    7  A    between atoms: _18  and  _20
REMARK    8  A    between atoms: _20  and  _21
REMARK    9  A    between atoms: _20  and  _23
REMARK   10  A    between atoms: _23  and  _24
REMARK   11  A    between atoms: _27  and  _29
REMARK   12  A    between atoms: _29  and  _30
REMARK   13  A    between atoms: _29  and  _32
REMARK   14  A    between atoms: _32  and  _33
REMARK   15  A    between atoms: _36  and  _38
REMARK   16  A    between atoms: _38  and  _39
REMARK   17  A    between atoms: _38  and  _41
REMARK   18  A    between atoms: _41  and  _42
REMARK   19  A    between atoms: _45  and  _47
REMARK   20  A    between atoms: _47  and  _48
REMARK   21  A    between atoms: _47  and  _50
REMARK   22  A    between atoms: _50  and  _51
REMARK   23  A    between atoms: _54  and  _56
REMARK   24  A    between atoms: _56  and  _57
REMARK   25  A    between atoms: _59  and  _61
REMARK   26  A    between atoms: _61  and  _62
REMARK   27  A    between atoms: _65  and  _67
REMARK   28  A    between atoms: _67  and  _68
REMARK   29  A    between atoms: _67  and  _70
REMARK   30  A    between atoms: _70  and  _71
REMARK   31  A    between atoms: _74  and  _76
REMARK   32  A    between atoms: _76  and  _77
REMARK   33  A    between atoms: _76  and  _79
REMARK   34  A    between atoms: _79  and  _80
REMARK   35  A    between atoms: _85  and  _87
REMARK   36  A    between atoms: _87  and  _88
REMARK   37  A    between atoms: _87  and  _90
REMARK   38  A    between atoms: _90  and  _91
REMARK   39  A    between atoms: _94  and  _96
REMARK   40  A    between atoms: _96  and  _97
REMARK   41  A    between atoms: _96  and  _99
REMARK   42  A    between atoms: _102  and  _104
REMARK   43  A    between atoms: _104  and  _105
REMARK   44  A    between atoms: _104  and  _107
REMARK   45  A    between atoms: _107  and  _108
REMARK   46  A    between atoms: _108  and  _109
REMARK   47  A    between atoms: _109  and  _110
REMARK   48  A    between atoms: _110  and  _111
REMARK   49  A    between atoms: _115  and  _117
REMARK   50  A    between atoms: _117  and  _118
REMARK   51  A    between atoms: _117  and  _120
REMARK   52  A    between atoms: _120  and  _121
REMARK   53  A    between atoms: _121  and  _122
REMARK   54  A    between atoms: _124  and  _126
REMARK   55  A    between atoms: _126  and  _127
REMARK   56  A    between atoms: _126  and  _129
REMARK   57  A    between atoms: _129  and  _130
REMARK   58  A    between atoms: _133  and  _135
REMARK   59  A    between atoms: _135  and  _136
REMARK   60  A    between atoms: _138  and  _140
REMARK   61  A    between atoms: _140  and  _141
REMARK   62  A    between atoms: _143  and  _145
REMARK   63  A    between atoms: _145  and  _146
REMARK   64  A    between atoms: _145  and  _148
REMARK   65  A    between atoms: _148  and  _149
REMARK   66  A    between atoms: _152  and  _154
REMARK   67  A    between atoms: _154  and  _155
REMARK   68  A    between atoms: _157  and  _159
REMARK   69  A    between atoms: _159  and  _160
REMARK   70  A    between atoms: _162  and  _164
REMARK   71  A    between atoms: _164  and  _165
REMARK   72  A    between atoms: _164  and  _167
REMARK   73  A    between atoms: _167  and  _168
REMARK   74  A    between atoms: _174  and  _176
REMARK   75  A    between atoms: _176  and  _177
REMARK   76  A    between atoms: _176  and  _179
REMARK   77  A    between atoms: _179  and  _180
REMARK   78  A    between atoms: _183  and  _185
REMARK   79  A    between atoms: _185  and  _186
REMARK   80  A    between atoms: _185  and  _188
REMARK   81  A    between atoms: _191  and  _193
REMARK   82  A    between atoms: _193  and  _194
REMARK   83  A    between atoms: _193  and  _196
REMARK   84  A    between atoms: _196  and  _197
REMARK   85  A    between atoms: _201  and  _202
REMARK   86  A    between atoms: _207  and  _209
REMARK   87  A    between atoms: _209  and  _210
REMARK   88  A    between atoms: _209  and  _212
REMARK   89  A    between atoms: _212  and  _213
REMARK   90  A    between atoms: _217  and  _218
REMARK   91  A    between atoms: _223  and  _225
REMARK   92  A    between atoms: _225  and  _226
REMARK   93  A    between atoms: _225  and  _228
REMARK   94  A    between atoms: _231  and  _233
REMARK   95  A    between atoms: _233  and  _234
REMARK   96  A    between atoms: _233  and  _236
REMARK   97  A    between atoms: _236  and  _237
REMARK   98  A    between atoms: _242  and  _244
REMARK   99  A    between atoms: _244  and  _245
REMARK  100  A    between atoms: _244  and  _247
REMARK  101  A    between atoms: _247  and  _248
REMARK  102  A    between atoms: _251  and  _253
REMARK  103  A    between atoms: _253  and  _254
REMARK  104  A    between atoms: _253  and  _256
REMARK  105  A    between atoms: _256  and  _257
REMARK  106  A    between atoms: _260  and  _262
REMARK  107  A    between atoms: _262  and  _263
REMARK  108  A    between atoms: _265  and  _267
REMARK  109  A    between atoms: _267  and  _268
REMARK  110  A    between atoms: _267  and  _270
REMARK  111  A    between atoms: _270  and  _271
REMARK  112  A    between atoms: _271  and  _272
REMARK  113  A    between atoms: _272  and  _273
REMARK  114  A    between atoms: _282  and  _284
REMARK  115  A    between atoms: _284  and  _285
REMARK  116  A    between atoms: _284  and  _287
REMARK  117  A    between atoms: _287  and  _288
REMARK  118  A    between atoms: _293  and  _295
REMARK  119  A    between atoms: _295  and  _296
REMARK  120  A    between atoms: _295  and  _298
REMARK  121  A    between atoms: _298  and  _299
REMARK  122  A    between atoms: _299  and  _300
REMARK  123  A    between atoms: _300  and  _301
REMARK  124  A    between atoms: _310  and  _312
REMARK  125  A    between atoms: _312  and  _313
REMARK  126  A    between atoms: _312  and  _315
REMARK  127  A    between atoms: _315  and  _316
REMARK  128  A    between atoms: _319  and  _321
REMARK  129  A    between atoms: _321  and  _322
REMARK  130  A    between atoms: _321  and  _324
REMARK  131  A    between atoms: _324  and  _325
REMARK  132  A    between atoms: _328  and  _330
REMARK  133  A    between atoms: _330  and  _331
REMARK  134  A    between atoms: _330  and  _333
REMARK  135  A    between atoms: _333  and  _334
REMARK  136  A    between atoms: _337  and  _339
REMARK  137  A    between atoms: _339  and  _340
REMARK  138  A    between atoms: _339  and  _342
REMARK  139  A    between atoms: _342  and  _343
REMARK  140  A    between atoms: _346  and  _348
REMARK  141  A    between atoms: _348  and  _349
REMARK  142  A    between atoms: _351  and  _353
REMARK  143  A    between atoms: _353  and  _354
REMARK  144  A    between atoms: _357  and  _359
REMARK  145  A    between atoms: _359  and  _360
REMARK  146  A    between atoms: _359  and  _362
REMARK  147  A    between atoms: _362  and  _363
REMARK  148  A    between atoms: _366  and  _368
REMARK  149  A    between atoms: _368  and  _369
REMARK  150  A    between atoms: _368  and  _371
REMARK  151  A    between atoms: _371  and  _372
REMARK  152  A    between atoms: _377  and  _379
REMARK  153  A    between atoms: _379  and  _380
REMARK  154  A    between atoms: _379  and  _382
REMARK  155  A    between atoms: _382  and  _383
REMARK  156  A    between atoms: _386  and  _388
REMARK  157  A    between atoms: _388  and  _389
REMARK  158  A    between atoms: _388  and  _391
REMARK  159  A    between atoms: _394  and  _396
REMARK  160  A    between atoms: _396  and  _397
REMARK  161  A    between atoms: _396  and  _399
REMARK  162  A    between atoms: _399  and  _400
REMARK  163  A    between atoms: _400  and  _401
REMARK  164  A    between atoms: _401  and  _402
REMARK  165  A    between atoms: _402  and  _403
REMARK  166  A    between atoms: _407  and  _409
REMARK  167  A    between atoms: _409  and  _410
REMARK  168  A    between atoms: _409  and  _412
REMARK  169  A    between atoms: _412  and  _413
REMARK  170  A    between atoms: _413  and  _414
REMARK  171  A    between atoms: _416  and  _418
REMARK  172  A    between atoms: _418  and  _419
REMARK  173  A    between atoms: _418  and  _421
REMARK  174  A    between atoms: _421  and  _422
REMARK  175  A    between atoms: _425  and  _427
REMARK  176  A    between atoms: _427  and  _428
REMARK  177  A    between atoms: _430  and  _432
REMARK  178  A    between atoms: _432  and  _433
REMARK  179  A    between atoms: _435  and  _437
REMARK  180  A    between atoms: _437  and  _438
REMARK  181  A    between atoms: _437  and  _440
REMARK  182  A    between atoms: _440  and  _441
REMARK  183  A    between atoms: _444  and  _446
REMARK  184  A    between atoms: _446  and  _447
REMARK  185  A    between atoms: _449  and  _451
REMARK  186  A    between atoms: _451  and  _452
REMARK  187  A    between atoms: _454  and  _456
REMARK  188  A    between atoms: _456  and  _457
REMARK  189  A    between atoms: _456  and  _459
REMARK  190  A    between atoms: _459  and  _460
REMARK  191  A    between atoms: _466  and  _468
REMARK  192  A    between atoms: _468  and  _469
REMARK  193  A    between atoms: _468  and  _471
REMARK  194  A    between atoms: _471  and  _472
REMARK  195  A    between atoms: _475  and  _477
REMARK  196  A    between atoms: _477  and  _478
REMARK  197  A    between atoms: _477  and  _480
REMARK  198  A    between atoms: _483  and  _485
REMARK  199  A    between atoms: _485  and  _486
REMARK  200  A    between atoms: _485  and  _488
REMARK  201  A    between atoms: _488  and  _489
REMARK  202  A    between atoms: _492  and  _494
REMARK  203  A    between atoms: _494  and  _495
REMARK  204  A    between atoms: _494  and  _497
REMARK  205  A    between atoms: _497  and  _498
REMARK  206  A    between atoms: _502  and  _503
REMARK  207  A    between atoms: _508  and  _510
REMARK  208  A    between atoms: _510  and  _511
REMARK  209  A    between atoms: _510  and  _513
REMARK  210  A    between atoms: _516  and  _518
REMARK  211  A    between atoms: _518  and  _519
REMARK  212  A    between atoms: _518  and  _521
REMARK  213  A    between atoms: _521  and  _522
REMARK  214  A    between atoms: _527  and  _529
REMARK  215  A    between atoms: _529  and  _530
REMARK  216  A    between atoms: _529  and  _532
REMARK  217  A    between atoms: _532  and  _533
REMARK  218  A    between atoms: _536  and  _538
REMARK  219  A    between atoms: _538  and  _539
REMARK  220  A    between atoms: _541  and  _543
REMARK  221  A    between atoms: _543  and  _544
REMARK  222  A    between atoms: _543  and  _546
REMARK  223  A    between atoms: _546  and  _547
REMARK  224  A    between atoms: _547  and  _548
REMARK  225  A    between atoms: _548  and  _549
REMARK  226  A    between atoms: _558  and  _560
REMARK  227  A    between atoms: _560  and  _561
REMARK  228  A    between atoms: _560  and  _563
REMARK  229  A    between atoms: _563  and  _564
REMARK                            x       y       z     vdW  Elec       q    Type
REMARK                         _______ _______ _______ _____ _____    ______ ____
ROOT
ATOM      1  O   HOH     1       9.294  24.340   7.379  0.00  0.00    +0.000 OA
ENDROOT
TORSDOF 0
REMARK  Name = ../refined-set-2016/4hdb/4hdb_pocket.pdb
REMARK  229 active torsions:
REMARK  status: ('A' for Active; 'I' for Inactive)
REMARK    1  A    between atoms: _1  and  _3
REMARK    2  A    between atoms: _3  and  _4
REMARK    3  A    between atoms: _3  and  _6
REMARK    4  A    between atoms: _6  and  _7
REMARK    5  A    between atoms: _7  and  _8
REMARK    6  A    between atoms: _8  and  _9
REMARK    7  A    between atoms: _18  and  _20
REMARK    8  A    between atoms: _20  and  _21
REMARK    9  A    between atoms: _20  and  _23
REMARK   10  A    between atoms: _23  and  _24
REMARK   11  A    between atoms: _27  and  _29
REMARK   12  A    between atoms: _29  and  _30
REMARK   13  A    between atoms: _29  and  _32
REMARK   14  A    between atoms: _32  and  _33
REMARK   15  A    between atoms: _36  and  _38
REMARK   16  A    between atoms: _38  and  _39
REMARK   17  A    between atoms: _38  and  _41
REMARK   18  A    between atoms: _41  and  _42
REMARK   19  A    between atoms: _45  and  _47
REMARK   20  A    between atoms: _47  and  _48
REMARK   21  A    between atoms: _47  and  _50
REMARK   22  A    between atoms: _50  and  _51
REMARK   23  A    between atoms: _54  and  _56
REMARK   24  A    between atoms: _56  and  _57
REMARK   25  A    between atoms: _59  and  _61
REMARK   26  A    between atoms: _61  and  _62
REMARK   27  A    between atoms: _65  and  _67
REMARK   28  A    between atoms: _67  and  _68
REMARK   29  A    between atoms: _67  and  _70
REMARK   30  A    between atoms: _70  and  _71
REMARK   31  A    between atoms: _74  and  _76
REMARK   32  A    between atoms: _76  and  _77
REMARK   33  A    between atoms: _76  and  _79
REMARK   34  A    between atoms: _79  and  _80
REMARK   35  A    between atoms: _85  and  _87
REMARK   36  A    between atoms: _87  and  _88
REMARK   37  A    between atoms: _87  and  _90
REMARK   38  A    between atoms: _90  and  _91
REMARK   39  A    between atoms: _94  and  _96
REMARK   40  A    between atoms: _96  and  _97
REMARK   41  A    between atoms: _96  and  _99
REMARK   42  A    between atoms: _102  and  _104
REMARK   43  A    between atoms: _104  and  _105
REMARK   44  A    between atoms: _104  and  _107
REMARK   45  A    between atoms: _107  and  _108
REMARK   46  A    between atoms: _108  and  _109
REMARK   47  A    between atoms: _109  and  _110
REMARK   48  A    between atoms: _110  and  _111
REMARK   49  A    between atoms: _115  and  _117
REMARK   50  A    between atoms: _117  and  _118
REMARK   51  A    between atoms: _117  and  _120
REMARK   52  A    between atoms: _120  and  _121
REMARK   53  A    between atoms: _121  and  _122
REMARK   54  A    between atoms: _124  and  _126
REMARK   55  A    between atoms: _126  and  _127
REMARK   56  A    between atoms: _126  and  _129
REMARK   57  A    between atoms: _129  and  _130
REMARK   58  A    between atoms: _133  and  _135
REMARK   59  A    between atoms: _135  and  _136
REMARK   60  A    between atoms: _138  and  _140
REMARK   61  A    between atoms: _140  and  _141
REMARK   62  A    between atoms: _143  and  _145
REMARK   63  A    between atoms: _145  and  _146
REMARK   64  A    between atoms: _145  and  _148
REMARK   65  A    between atoms: _148  and  _149
REMARK   66  A    between atoms: _152  and  _154
REMARK   67  A    between atoms: _154  and  _155
REMARK   68  A    between atoms: _157  and  _159
REMARK   69  A    between atoms: _159  and  _160
REMARK   70  A    between atoms: _162  and  _164
REMARK   71  A    between atoms: _164  and  _165
REMARK   72  A    between atoms: _164  and  _167
REMARK   73  A    between atoms: _167  and  _168
REMARK   74  A    between atoms: _174  and  _176
REMARK   75  A    between atoms: _176  and  _177
REMARK   76  A    between atoms: _176  and  _179
REMARK   77  A    between atoms: _179  and  _180
REMARK   78  A    between atoms: _183  and  _185
REMARK   79  A    between atoms: _185  and  _186
REMARK   80  A    between atoms: _185  and  _188
REMARK   81  A    between atoms: _191  and  _193
REMARK   82  A    between atoms: _193  and  _194
REMARK   83  A    between atoms: _193  and  _196
REMARK   84  A    between atoms: _196  and  _197
REMARK   85  A    between atoms: _201  and  _202
REMARK   86  A    between atoms: _207  and  _209
REMARK   87  A    between atoms: _209  and  _210
REMARK   88  A    between atoms: _209  and  _212
REMARK   89  A    between atoms: _212  and  _213
REMARK   90  A    between atoms: _217  and  _218
REMARK   91  A    between atoms: _223  and  _225
REMARK   92  A    between atoms: _225  and  _226
REMARK   93  A    between atoms: _225  and  _228
REMARK   94  A    between atoms: _231  and  _233
REMARK   95  A    between atoms: _233  and  _234
REMARK   96  A    between atoms: _233  and  _236
REMARK   97  A    between atoms: _236  and  _237
REMARK   98  A    between atoms: _242  and  _244
REMARK   99  A    between atoms: _244  and  _245
REMARK  100  A    between atoms: _244  and  _247
REMARK  101  A    between atoms: _247  and  _248
REMARK  102  A    between atoms: _251  and  _253
REMARK  103  A    between atoms: _253  and  _254
REMARK  104  A    between atoms: _253  and  _256
REMARK  105  A    between atoms: _256  and  _257
REMARK  106  A    between atoms: _260  and  _262
REMARK  107  A    between atoms: _262  and  _263
REMARK  108  A    between atoms: _265  and  _267
REMARK  109  A    between atoms: _267  and  _268
REMARK  110  A    between atoms: _267  and  _270
REMARK  111  A    between atoms: _270  and  _271
REMARK  112  A    between atoms: _271  and  _272
REMARK  113  A    between atoms: _272  and  _273
REMARK  114  A    between atoms: _282  and  _284
REMARK  115  A    between atoms: _284  and  _285
REMARK  116  A    between atoms: _284  and  _287
REMARK  117  A    between atoms: _287  and  _288
REMARK  118  A    between atoms: _293  and  _295
REMARK  119  A    between atoms: _295  and  _296
REMARK  120  A    between atoms: _295  and  _298
REMARK  121  A    between atoms: _298  and  _299
REMARK  122  A    between atoms: _299  and  _300
REMARK  123  A    between atoms: _300  and  _301
REMARK  124  A    between atoms: _310  and  _312
REMARK  125  A    between atoms: _312  and  _313
REMARK  126  A    between atoms: _312  and  _315
REMARK  127  A    between atoms: _315  and  _316
REMARK  128  A    between atoms: _319  and  _321
REMARK  129  A    between atoms: _321  and  _322
REMARK  130  A    between atoms: _321  and  _324
REMARK  131  A    between atoms: _324  and  _325
REMARK  132  A    between atoms: _328  and  _330
REMARK  133  A    between atoms: _330  and  _331
REMARK  134  A    between atoms: _330  and  _333
REMARK  135  A    between atoms: _333  and  _334
REMARK  136  A    between atoms: _337  and  _339
REMARK  137  A    between atoms: _339  and  _340
REMARK  138  A    between atoms: _339  and  _342
REMARK  139  A    between atoms: _342  and  _343
REMARK  140  A    between atoms: _346  and  _348
REMARK  141  A    between atoms: _348  and  _349
REMARK  142  A    between atoms: _351  and  _353
REMARK  143  A    between atoms: _353  and  _354
REMARK  144  A    between atoms: _357  and  _359
REMARK  145  A    between atoms: _359  and  _360
REMARK  146  A    between atoms: _359  and  _362
REMARK  147  A    between atoms: _362  and  _363
REMARK  148  A    between atoms: _366  and  _368
REMARK  149  A    between atoms: _368  and  _369
REMARK  150  A    between atoms: _368  and  _371
REMARK  151  A    between atoms: _371  and  _372
REMARK  152  A    between atoms: _377  and  _379
REMARK  153  A    between atoms: _379  and  _380
REMARK  154  A    between atoms: _379  and  _382
REMARK  155  A    between atoms: _382  and  _383
REMARK  156  A    between atoms: _386  and  _388
REMARK  157  A    between atoms: _388  and  _389
REMARK  158  A    between atoms: _388  and  _391
REMARK  159  A    between atoms: _394  and  _396
REMARK  160  A    between atoms: _396  and  _397
REMARK  161  A    between atoms: _396  and  _399
REMARK  162  A    between atoms: _399  and  _400
REMARK  163  A    between atoms: _400  and  _401
REMARK  164  A    between atoms: _401  and  _402
REMARK  165  A    between atoms: _402  and  _403
REMARK  166  A    between atoms: _407  and  _409
REMARK  167  A    between atoms: _409  and  _410
REMARK  168  A    between atoms: _409  and  _412
REMARK  169  A    between atoms: _412  and  _413
REMARK  170  A    between atoms: _413  and  _414
REMARK  171  A    between atoms: _416  and  _418
REMARK  172  A    between atoms: _418  and  _419
REMARK  173  A    between atoms: _418  and  _421
REMARK  174  A    between atoms: _421  and  _422
REMARK  175  A    between atoms: _425  and  _427
REMARK  176  A    between atoms: _427  and  _428
REMARK  177  A    between atoms: _430  and  _432
REMARK  178  A    between atoms: _432  and  _433
REMARK  179  A    between atoms: _435  and  _437
REMARK  180  A    between atoms: _437  and  _438
REMARK  181  A    between atoms: _437  and  _440
REMARK  182  A    between atoms: _440  and  _441
REMARK  183  A    between atoms: _444  and  _446
REMARK  184  A    between atoms: _446  and  _447
REMARK  185  A    between atoms: _449  and  _451
REMARK  186  A    between atoms: _451  and  _452
REMARK  187  A    between atoms: _454  and  _456
REMARK  188  A    between atoms: _456  and  _457
REMARK  189  A    between atoms: _456  and  _459
REMARK  190  A    between atoms: _459  and  _460
REMARK  191  A    between atoms: _466  and  _468
REMARK  192  A    between atoms: _468  and  _469
REMARK  193  A    between atoms: _468  and  _471
REMARK  194  A    between atoms: _471  and  _472
REMARK  195  A    between atoms: _475  and  _477
REMARK  196  A    between atoms: _477  and  _478
REMARK  197  A    between atoms: _477  and  _480
REMARK  198  A    between atoms: _483  and  _485
REMARK  199  A    between atoms: _485  and  _486
REMARK  200  A    between atoms: _485  and  _488
REMARK  201  A    between atoms: _488  and  _489
REMARK  202  A    between atoms: _492  and  _494
REMARK  203  A    between atoms: _494  and  _495
REMARK  204  A    between atoms: _494  and  _497
REMARK  205  A    between atoms: _497  and  _498
REMARK  206  A    between atoms: _502  and  _503
REMARK  207  A    between atoms: _508  and  _510
REMARK  208  A    between atoms: _510  and  _511
REMARK  209  A    between atoms: _510  and  _513
REMARK  210  A    between atoms: _516  and  _518
REMARK  211  A    between atoms: _518  and  _519
REMARK  212  A    between atoms: _518  and  _521
REMARK  213  A    between atoms: _521  and  _522
REMARK  214  A    between atoms: _527  and  _529
REMARK  215  A    between atoms: _529  and  _530
REMARK  216  A    between atoms: _529  and  _532
REMARK  217  A    between atoms: _532  and  _533
REMARK  218  A    between atoms: _536  and  _538
REMARK  219  A    between atoms: _538  and  _539
REMARK  220  A    between atoms: _541  and  _543
REMARK  221  A    between atoms: _543  and  _544
REMARK  222  A    between atoms: _543  and  _546
REMARK  223  A    between atoms: _546  and  _547
REMARK  224  A    between atoms: _547  and  _548
REMARK  225  A    between atoms: _548  and  _549
REMARK  226  A    between atoms: _558  and  _560
REMARK  227  A    between atoms: _560  and  _561
REMARK  228  A    between atoms: _560  and  _563
REMARK  229  A    between atoms: _563  and  _564
REMARK                            x       y       z     vdW  Elec       q    Type
REMARK                         _______ _______ _______ _____ _____    ______ ____
ROOT
ATOM      1  O   HOH     1       8.908  21.349  13.571  0.00  0.00    +0.000 OA
ENDROOT
TORSDOF 0
REMARK  Name = ../refined-set-2016/4hdb/4hdb_pocket.pdb
REMARK  229 active torsions:
REMARK  status: ('A' for Active; 'I' for Inactive)
REMARK    1  A    between atoms: _1  and  _3
REMARK    2  A    between atoms: _3  and  _4
REMARK    3  A    between atoms: _3  and  _6
REMARK    4  A    between atoms: _6  and  _7
REMARK    5  A    between atoms: _7  and  _8
REMARK    6  A    between atoms: _8  and  _9
REMARK    7  A    between atoms: _18  and  _20
REMARK    8  A    between atoms: _20  and  _21
REMARK    9  A    between atoms: _20  and  _23
REMARK   10  A    between atoms: _23  and  _24
REMARK   11  A    between atoms: _27  and  _29
REMARK   12  A    between atoms: _29  and  _30
REMARK   13  A    between atoms: _29  and  _32
REMARK   14  A    between atoms: _32  and  _33
REMARK   15  A    between atoms: _36  and  _38
REMARK   16  A    between atoms: _38  and  _39
REMARK   17  A    between atoms: _38  and  _41
REMARK   18  A    between atoms: _41  and  _42
REMARK   19  A    between atoms: _45  and  _47
REMARK   20  A    between atoms: _47  and  _48
REMARK   21  A    between atoms: _47  and  _50
REMARK   22  A    between atoms: _50  and  _51
REMARK   23  A    between atoms: _54  and  _56
REMARK   24  A    between atoms: _56  and  _57
REMARK   25  A    between atoms: _59  and  _61
REMARK   26  A    between atoms: _61  and  _62
REMARK   27  A    between atoms: _65  and  _67
REMARK   28  A    between atoms: _67  and  _68
REMARK   29  A    between atoms: _67  and  _70
REMARK   30  A    between atoms: _70  and  _71
REMARK   31  A    between atoms: _74  and  _76
REMARK   32  A    between atoms: _76  and  _77
REMARK   33  A    between atoms: _76  and  _79
REMARK   34  A    between atoms: _79  and  _80
REMARK   35  A    between atoms: _85  and  _87
REMARK   36  A    between atoms: _87  and  _88
REMARK   37  A    between atoms: _87  and  _90
REMARK   38  A    between atoms: _90  and  _91
REMARK   39  A    between atoms: _94  and  _96
REMARK   40  A    between atoms: _96  and  _97
REMARK   41  A    between atoms: _96  and  _99
REMARK   42  A    between atoms: _102  and  _104
REMARK   43  A    between atoms: _104  and  _105
REMARK   44  A    between atoms: _104  and  _107
REMARK   45  A    between atoms: _107  and  _108
REMARK   46  A    between atoms: _108  and  _109
REMARK   47  A    between atoms: _109  and  _110
REMARK   48  A    between atoms: _110  and  _111
REMARK   49  A    between atoms: _115  and  _117
REMARK   50  A    between atoms: _117  and  _118
REMARK   51  A    between atoms: _117  and  _120
REMARK   52  A    between atoms: _120  and  _121
REMARK   53  A    between atoms: _121  and  _122
REMARK   54  A    between atoms: _124  and  _126
REMARK   55  A    between atoms: _126  and  _127
REMARK   56  A    between atoms: _126  and  _129
REMARK   57  A    between atoms: _129  and  _130
REMARK   58  A    between atoms: _133  and  _135
REMARK   59  A    between atoms: _135  and  _136
REMARK   60  A    between atoms: _138  and  _140
REMARK   61  A    between atoms: _140  and  _141
REMARK   62  A    between atoms: _143  and  _145
REMARK   63  A    between atoms: _145  and  _146
REMARK   64  A    between atoms: _145  and  _148
REMARK   65  A    between atoms: _148  and  _149
REMARK   66  A    between atoms: _152  and  _154
REMARK   67  A    between atoms: _154  and  _155
REMARK   68  A    between atoms: _157  and  _159
REMARK   69  A    between atoms: _159  and  _160
REMARK   70  A    between atoms: _162  and  _164
REMARK   71  A    between atoms: _164  and  _165
REMARK   72  A    between atoms: _164  and  _167
REMARK   73  A    between atoms: _167  and  _168
REMARK   74  A    between atoms: _174  and  _176
REMARK   75  A    between atoms: _176  and  _177
REMARK   76  A    between atoms: _176  and  _179
REMARK   77  A    between atoms: _179  and  _180
REMARK   78  A    between atoms: _183  and  _185
REMARK   79  A    between atoms: _185  and  _186
REMARK   80  A    between atoms: _185  and  _188
REMARK   81  A    between atoms: _191  and  _193
REMARK   82  A    between atoms: _193  and  _194
REMARK   83  A    between atoms: _193  and  _196
REMARK   84  A    between atoms: _196  and  _197
REMARK   85  A    between atoms: _201  and  _202
REMARK   86  A    between atoms: _207  and  _209
REMARK   87  A    between atoms: _209  and  _210
REMARK   88  A    between atoms: _209  and  _212
REMARK   89  A    between atoms: _212  and  _213
REMARK   90  A    between atoms: _217  and  _218
REMARK   91  A    between atoms: _223  and  _225
REMARK   92  A    between atoms: _225  and  _226
REMARK   93  A    between atoms: _225  and  _228
REMARK   94  A    between atoms: _231  and  _233
REMARK   95  A    between atoms: _233  and  _234
REMARK   96  A    between atoms: _233  and  _236
REMARK   97  A    between atoms: _236  and  _237
REMARK   98  A    between atoms: _242  and  _244
REMARK   99  A    between atoms: _244  and  _245
REMARK  100  A    between atoms: _244  and  _247
REMARK  101  A    between atoms: _247  and  _248
REMARK  102  A    between atoms: _251  and  _253
REMARK  103  A    between atoms: _253  and  _254
REMARK  104  A    between atoms: _253  and  _256
REMARK  105  A    between atoms: _256  and  _257
REMARK  106  A    between atoms: _260  and  _262
REMARK  107  A    between atoms: _262  and  _263
REMARK  108  A    between atoms: _265  and  _267
REMARK  109  A    between atoms: _267  and  _268
REMARK  110  A    between atoms: _267  and  _270
REMARK  111  A    between atoms: _270  and  _271
REMARK  112  A    between atoms: _271  and  _272
REMARK  113  A    between atoms: _272  and  _273
REMARK  114  A    between atoms: _282  and  _284
REMARK  115  A    between atoms: _284  and  _285
REMARK  116  A    between atoms: _284  and  _287
REMARK  117  A    between atoms: _287  and  _288
REMARK  118  A    between atoms: _293  and  _295
REMARK  119  A    between atoms: _295  and  _296
REMARK  120  A    between atoms: _295  and  _298
REMARK  121  A    between atoms: _298  and  _299
REMARK  122  A    between atoms: _299  and  _300
REMARK  123  A    between atoms: _300  and  _301
REMARK  124  A    between atoms: _310  and  _312
REMARK  125  A    between atoms: _312  and  _313
REMARK  126  A    between atoms: _312  and  _315
REMARK  127  A    between atoms: _315  and  _316
REMARK  128  A    between atoms: _319  and  _321
REMARK  129  A    between atoms: _321  and  _322
REMARK  130  A    between atoms: _321  and  _324
REMARK  131  A    between atoms: _324  and  _325
REMARK  132  A    between atoms: _328  and  _330
REMARK  133  A    between atoms: _330  and  _331
REMARK  134  A    between atoms: _330  and  _333
REMARK  135  A    between atoms: _333  and  _334
REMARK  136  A    between atoms: _337  and  _339
REMARK  137  A    between atoms: _339  and  _340
REMARK  138  A    between atoms: _339  and  _342
REMARK  139  A    between atoms: _342  and  _343
REMARK  140  A    between atoms: _346  and  _348
REMARK  141  A    between atoms: _348  and  _349
REMARK  142  A    between atoms: _351  and  _353
REMARK  143  A    between atoms: _353  and  _354
REMARK  144  A    between atoms: _357  and  _359
REMARK  145  A    between atoms: _359  and  _360
REMARK  146  A    between atoms: _359  and  _362
REMARK  147  A    between atoms: _362  and  _363
REMARK  148  A    between atoms: _366  and  _368
REMARK  149  A    between atoms: _368  and  _369
REMARK  150  A    between atoms: _368  and  _371
REMARK  151  A    between atoms: _371  and  _372
REMARK  152  A    between atoms: _377  and  _379
REMARK  153  A    between atoms: _379  and  _380
REMARK  154  A    between atoms: _379  and  _382
REMARK  155  A    between atoms: _382  and  _383
REMARK  156  A    between atoms: _386  and  _388
REMARK  157  A    between atoms: _388  and  _389
REMARK  158  A    between atoms: _388  and  _391
REMARK  159  A    between atoms: _394  and  _396
REMARK  160  A    between atoms: _396  and  _397
REMARK  161  A    between atoms: _396  and  _399
REMARK  162  A    between atoms: _399  and  _400
REMARK  163  A    between atoms: _400  and  _401
REMARK  164  A    between atoms: _401  and  _402
REMARK  165  A    between atoms: _402  and  _403
REMARK  166  A    between atoms: _407  and  _409
REMARK  167  A    between atoms: _409  and  _410
REMARK  168  A    between atoms: _409  and  _412
REMARK  169  A    between atoms: _412  and  _413
REMARK  170  A    between atoms: _413  and  _414
REMARK  171  A    between atoms: _416  and  _418
REMARK  172  A    between atoms: _418  and  _419
REMARK  173  A    between atoms: _418  and  _421
REMARK  174  A    between atoms: _421  and  _422
REMARK  175  A    between atoms: _425  and  _427
REMARK  176  A    between atoms: _427  and  _428
REMARK  177  A    between atoms: _430  and  _432
REMARK  178  A    between atoms: _432  and  _433
REMARK  179  A    between atoms: _435  and  _437
REMARK  180  A    between atoms: _437  and  _438
REMARK  181  A    between atoms: _437  and  _440
REMARK  182  A    between atoms: _440  and  _441
REMARK  183  A    between atoms: _444  and  _446
REMARK  184  A    between atoms: _446  and  _447
REMARK  185  A    between atoms: _449  and  _451
REMARK  186  A    between atoms: _451  and  _452
REMARK  187  A    between atoms: _454  and  _456
REMARK  188  A    between atoms: _456  and  _457
REMARK  189  A    between atoms: _456  and  _459
REMARK  190  A    between atoms: _459  and  _460
REMARK  191  A    between atoms: _466  and  _468
REMARK  192  A    between atoms: _468  and  _469
REMARK  193  A    between atoms: _468  and  _471
REMARK  194  A    between atoms: _471  and  _472
REMARK  195  A    between atoms: _475  and  _477
REMARK  196  A    between atoms: _477  and  _478
REMARK  197  A    between atoms: _477  and  _480
REMARK  198  A    between atoms: _483  and  _485
REMARK  199  A    between atoms: _485  and  _486
REMARK  200  A    between atoms: _485  and  _488
REMARK  201  A    between atoms: _488  and  _489
REMARK  202  A    between atoms: _492  and  _494
REMARK  203  A    between atoms: _494  and  _495
REMARK  204  A    between atoms: _494  and  _497
REMARK  205  A    between atoms: _497  and  _498
REMARK  206  A    between atoms: _502  and  _503
REMARK  207  A    between atoms: _508  and  _510
REMARK  208  A    between atoms: _510  and  _511
REMARK  209  A    between atoms: _510  and  _513
REMARK  210  A    between atoms: _516  and  _518
REMARK  211  A    between atoms: _518  and  _519
REMARK  212  A    between atoms: _518  and  _521
REMARK  213  A    between atoms: _521  and  _522
REMARK  214  A    between atoms: _527  and  _529
REMARK  215  A    between atoms: _529  and  _530
REMARK  216  A    between atoms: _529  and  _532
REMARK  217  A    between atoms: _532  and  _533
REMARK  218  A    between atoms: _536  and  _538
REMARK  219  A    between atoms: _538  and  _539
REMARK  220  A    between atoms: _541  and  _543
REMARK  221  A    between atoms: _543  and  _544
REMARK  222  A    between atoms: _543  and  _546
REMARK  223  A    between atoms: _546  and  _547
REMARK  224  A    between atoms: _547  and  _548
REMARK  225  A    between atoms: _548  and  _549
REMARK  226  A    between atoms: _558  and  _560
REMARK  227  A    between atoms: _560  and  _561
REMARK  228  A    between atoms: _560  and  _563
REMARK  229  A    between atoms: _563  and  _564
REMARK                            x       y       z     vdW  Elec       q    Type
REMARK                         _______ _______ _______ _____ _____    ______ ____
ROOT
ATOM      1  O   HOH     1       4.722  21.318  11.181  0.00  0.00    +0.000 OA
ENDROOT
TORSDOF 0
REMARK  Name = ../refined-set-2016/4hdb/4hdb_pocket.pdb
REMARK  229 active torsions:
REMARK  status: ('A' for Active; 'I' for Inactive)
REMARK    1  A    between atoms: _1  and  _3
REMARK    2  A    between atoms: _3  and  _4
REMARK    3  A    between atoms: _3  and  _6
REMARK    4  A    between atoms: _6  and  _7
REMARK    5  A    between atoms: _7  and  _8
REMARK    6  A    between atoms: _8  and  _9
REMARK    7  A    between atoms: _18  and  _20
REMARK    8  A    between atoms: _20  and  _21
REMARK    9  A    between atoms: _20  and  _23
REMARK   10  A    between atoms: _23  and  _24
REMARK   11  A    between atoms: _27  and  _29
REMARK   12  A    between atoms: _29  and  _30
REMARK   13  A    between atoms: _29  and  _32
REMARK   14  A    between atoms: _32  and  _33
REMARK   15  A    between atoms: _36  and  _38
REMARK   16  A    between atoms: _38  and  _39
REMARK   17  A    between atoms: _38  and  _41
REMARK   18  A    between atoms: _41  and  _42
REMARK   19  A    between atoms: _45  and  _47
REMARK   20  A    between atoms: _47  and  _48
REMARK   21  A    between atoms: _47  and  _50
REMARK   22  A    between atoms: _50  and  _51
REMARK   23  A    between atoms: _54  and  _56
REMARK   24  A    between atoms: _56  and  _57
REMARK   25  A    between atoms: _59  and  _61
REMARK   26  A    between atoms: _61  and  _62
REMARK   27  A    between atoms: _65  and  _67
REMARK   28  A    between atoms: _67  and  _68
REMARK   29  A    between atoms: _67  and  _70
REMARK   30  A    between atoms: _70  and  _71
REMARK   31  A    between atoms: _74  and  _76
REMARK   32  A    between atoms: _76  and  _77
REMARK   33  A    between atoms: _76  and  _79
REMARK   34  A    between atoms: _79  and  _80
REMARK   35  A    between atoms: _85  and  _87
REMARK   36  A    between atoms: _87  and  _88
REMARK   37  A    between atoms: _87  and  _90
REMARK   38  A    between atoms: _90  and  _91
REMARK   39  A    between atoms: _94  and  _96
REMARK   40  A    between atoms: _96  and  _97
REMARK   41  A    between atoms: _96  and  _99
REMARK   42  A    between atoms: _102  and  _104
REMARK   43  A    between atoms: _104  and  _105
REMARK   44  A    between atoms: _104  and  _107
REMARK   45  A    between atoms: _107  and  _108
REMARK   46  A    between atoms: _108  and  _109
REMARK   47  A    between atoms: _109  and  _110
REMARK   48  A    between atoms: _110  and  _111
REMARK   49  A    between atoms: _115  and  _117
REMARK   50  A    between atoms: _117  and  _118
REMARK   51  A    between atoms: _117  and  _120
REMARK   52  A    between atoms: _120  and  _121
REMARK   53  A    between atoms: _121  and  _122
REMARK   54  A    between atoms: _124  and  _126
REMARK   55  A    between atoms: _126  and  _127
REMARK   56  A    between atoms: _126  and  _129
REMARK   57  A    between atoms: _129  and  _130
REMARK   58  A    between atoms: _133  and  _135
REMARK   59  A    between atoms: _135  and  _136
REMARK   60  A    between atoms: _138  and  _140
REMARK   61  A    between atoms: _140  and  _141
REMARK   62  A    between atoms: _143  and  _145
REMARK   63  A    between atoms: _145  and  _146
REMARK   64  A    between atoms: _145  and  _148
REMARK   65  A    between atoms: _148  and  _149
REMARK   66  A    between atoms: _152  and  _154
REMARK   67  A    between atoms: _154  and  _155
REMARK   68  A    between atoms: _157  and  _159
REMARK   69  A    between atoms: _159  and  _160
REMARK   70  A    between atoms: _162  and  _164
REMARK   71  A    between atoms: _164  and  _165
REMARK   72  A    between atoms: _164  and  _167
REMARK   73  A    between atoms: _167  and  _168
REMARK   74  A    between atoms: _174  and  _176
REMARK   75  A    between atoms: _176  and  _177
REMARK   76  A    between atoms: _176  and  _179
REMARK   77  A    between atoms: _179  and  _180
REMARK   78  A    between atoms: _183  and  _185
REMARK   79  A    between atoms: _185  and  _186
REMARK   80  A    between atoms: _185  and  _188
REMARK   81  A    between atoms: _191  and  _193
REMARK   82  A    between atoms: _193  and  _194
REMARK   83  A    between atoms: _193  and  _196
REMARK   84  A    between atoms: _196  and  _197
REMARK   85  A    between atoms: _201  and  _202
REMARK   86  A    between atoms: _207  and  _209
REMARK   87  A    between atoms: _209  and  _210
REMARK   88  A    between atoms: _209  and  _212
REMARK   89  A    between atoms: _212  and  _213
REMARK   90  A    between atoms: _217  and  _218
REMARK   91  A    between atoms: _223  and  _225
REMARK   92  A    between atoms: _225  and  _226
REMARK   93  A    between atoms: _225  and  _228
REMARK   94  A    between atoms: _231  and  _233
REMARK   95  A    between atoms: _233  and  _234
REMARK   96  A    between atoms: _233  and  _236
REMARK   97  A    between atoms: _236  and  _237
REMARK   98  A    between atoms: _242  and  _244
REMARK   99  A    between atoms: _244  and  _245
REMARK  100  A    between atoms: _244  and  _247
REMARK  101  A    between atoms: _247  and  _248
REMARK  102  A    between atoms: _251  and  _253
REMARK  103  A    between atoms: _253  and  _254
REMARK  104  A    between atoms: _253  and  _256
REMARK  105  A    between atoms: _256  and  _257
REMARK  106  A    between atoms: _260  and  _262
REMARK  107  A    between atoms: _262  and  _263
REMARK  108  A    between atoms: _265  and  _267
REMARK  109  A    between atoms: _267  and  _268
REMARK  110  A    between atoms: _267  and  _270
REMARK  111  A    between atoms: _270  and  _271
REMARK  112  A    between atoms: _271  and  _272
REMARK  113  A    between atoms: _272  and  _273
REMARK  114  A    between atoms: _282  and  _284
REMARK  115  A    between atoms: _284  and  _285
REMARK  116  A    between atoms: _284  and  _287
REMARK  117  A    between atoms: _287  and  _288
REMARK  118  A    between atoms: _293  and  _295
REMARK  119  A    between atoms: _295  and  _296
REMARK  120  A    between atoms: _295  and  _298
REMARK  121  A    between atoms: _298  and  _299
REMARK  122  A    between atoms: _299  and  _300
REMARK  123  A    between atoms: _300  and  _301
REMARK  124  A    between atoms: _310  and  _312
REMARK  125  A    between atoms: _312  and  _313
REMARK  126  A    between atoms: _312  and  _315
REMARK  127  A    between atoms: _315  and  _316
REMARK  128  A    between atoms: _319  and  _321
REMARK  129  A    between atoms: _321  and  _322
REMARK  130  A    between atoms: _321  and  _324
REMARK  131  A    between atoms: _324  and  _325
REMARK  132  A    between atoms: _328  and  _330
REMARK  133  A    between atoms: _330  and  _331
REMARK  134  A    between atoms: _330  and  _333
REMARK  135  A    between atoms: _333  and  _334
REMARK  136  A    between atoms: _337  and  _339
REMARK  137  A    between atoms: _339  and  _340
REMARK  138  A    between atoms: _339  and  _342
REMARK  139  A    between atoms: _342  and  _343
REMARK  140  A    between atoms: _346  and  _348
REMARK  141  A    between atoms: _348  and  _349
REMARK  142  A    between atoms: _351  and  _353
REMARK  143  A    between atoms: _353  and  _354
REMARK  144  A    between atoms: _357  and  _359
REMARK  145  A    between atoms: _359  and  _360
REMARK  146  A    between atoms: _359  and  _362
REMARK  147  A    between atoms: _362  and  _363
REMARK  148  A    between atoms: _366  and  _368
REMARK  149  A    between atoms: _368  and  _369
REMARK  150  A    between atoms: _368  and  _371
REMARK  151  A    between atoms: _371  and  _372
REMARK  152  A    between atoms: _377  and  _379
REMARK  153  A    between atoms: _379  and  _380
REMARK  154  A    between atoms: _379  and  _382
REMARK  155  A    between atoms: _382  and  _383
REMARK  156  A    between atoms: _386  and  _388
REMARK  157  A    between atoms: _388  and  _389
REMARK  158  A    between atoms: _388  and  _391
REMARK  159  A    between atoms: _394  and  _396
REMARK  160  A    between atoms: _396  and  _397
REMARK  161  A    between atoms: _396  and  _399
REMARK  162  A    between atoms: _399  and  _400
REMARK  163  A    between atoms: _400  and  _401
REMARK  164  A    between atoms: _401  and  _402
REMARK  165  A    between atoms: _402  and  _403
REMARK  166  A    between atoms: _407  and  _409
REMARK  167  A    between atoms: _409  and  _410
REMARK  168  A    between atoms: _409  and  _412
REMARK  169  A    between atoms: _412  and  _413
REMARK  170  A    between atoms: _413  and  _414
REMARK  171  A    between atoms: _416  and  _418
REMARK  172  A    between atoms: _418  and  _419
REMARK  173  A    between atoms: _418  and  _421
REMARK  174  A    between atoms: _421  and  _422
REMARK  175  A    between atoms: _425  and  _427
REMARK  176  A    between atoms: _427  and  _428
REMARK  177  A    between atoms: _430  and  _432
REMARK  178  A    between atoms: _432  and  _433
REMARK  179  A    between atoms: _435  and  _437
REMARK  180  A    between atoms: _437  and  _438
REMARK  181  A    between atoms: _437  and  _440
REMARK  182  A    between atoms: _440  and  _441
REMARK  183  A    between atoms: _444  and  _446
REMARK  184  A    between atoms: _446  and  _447
REMARK  185  A    between atoms: _449  and  _451
REMARK  186  A    between atoms: _451  and  _452
REMARK  187  A    between atoms: _454  and  _456
REMARK  188  A    between atoms: _456  and  _457
REMARK  189  A    between atoms: _456  and  _459
REMARK  190  A    between atoms: _459  and  _460
REMARK  191  A    between atoms: _466  and  _468
REMARK  192  A    between atoms: _468  and  _469
REMARK  193  A    between atoms: _468  and  _471
REMARK  194  A    between atoms: _471  and  _472
REMARK  195  A    between atoms: _475  and  _477
REMARK  196  A    between atoms: _477  and  _478
REMARK  197  A    between atoms: _477  and  _480
REMARK  198  A    between atoms: _483  and  _485
REMARK  199  A    between atoms: _485  and  _486
REMARK  200  A    between atoms: _485  and  _488
REMARK  201  A    between atoms: _488  and  _489
REMARK  202  A    between atoms: _492  and  _494
REMARK  203  A    between atoms: _494  and  _495
REMARK  204  A    between atoms: _494  and  _497
REMARK  205  A    between atoms: _497  and  _498
REMARK  206  A    between atoms: _502  and  _503
REMARK  207  A    between atoms: _508  and  _510
REMARK  208  A    between atoms: _510  and  _511
REMARK  209  A    between atoms: _510  and  _513
REMARK  210  A    between atoms: _516  and  _518
REMARK  211  A    between atoms: _518  and  _519
REMARK  212  A    between atoms: _518  and  _521
REMARK  213  A    between atoms: _521  and  _522
REMARK  214  A    between atoms: _527  and  _529
REMARK  215  A    between atoms: _529  and  _530
REMARK  216  A    between atoms: _529  and  _532
REMARK  217  A    between atoms: _532  and  _533
REMARK  218  A    between atoms: _536  and  _538
REMARK  219  A    between atoms: _538  and  _539
REMARK  220  A    between atoms: _541  and  _543
REMARK  221  A    between atoms: _543  and  _544
REMARK  222  A    between atoms: _543  and  _546
REMARK  223  A    between atoms: _546  and  _547
REMARK  224  A    between atoms: _547  and  _548
REMARK  225  A    between atoms: _548  and  _549
REMARK  226  A    between atoms: _558  and  _560
REMARK  227  A    between atoms: _560  and  _561
REMARK  228  A    between atoms: _560  and  _563
REMARK  229  A    between atoms: _563  and  _564
REMARK                            x       y       z     vdW  Elec       q    Type
REMARK                         _______ _______ _______ _____ _____    ______ ____
ROOT
ATOM      1  O   HOH     1       7.264  22.454  11.513  0.00  0.00    +0.000 OA
ENDROOT
TORSDOF 0
REMARK  Name = ../refined-set-2016/4hdb/4hdb_pocket.pdb
REMARK  229 active torsions:
REMARK  status: ('A' for Active; 'I' for Inactive)
REMARK    1  A    between atoms: _1  and  _3
REMARK    2  A    between atoms: _3  and  _4
REMARK    3  A    between atoms: _3  and  _6
REMARK    4  A    between atoms: _6  and  _7
REMARK    5  A    between atoms: _7  and  _8
REMARK    6  A    between atoms: _8  and  _9
REMARK    7  A    between atoms: _18  and  _20
REMARK    8  A    between atoms: _20  and  _21
REMARK    9  A    between atoms: _20  and  _23
REMARK   10  A    between atoms: _23  and  _24
REMARK   11  A    between atoms: _27  and  _29
REMARK   12  A    between atoms: _29  and  _30
REMARK   13  A    between atoms: _29  and  _32
REMARK   14  A    between atoms: _32  and  _33
REMARK   15  A    between atoms: _36  and  _38
REMARK   16  A    between atoms: _38  and  _39
REMARK   17  A    between atoms: _38  and  _41
REMARK   18  A    between atoms: _41  and  _42
REMARK   19  A    between atoms: _45  and  _47
REMARK   20  A    between atoms: _47  and  _48
REMARK   21  A    between atoms: _47  and  _50
REMARK   22  A    between atoms: _50  and  _51
REMARK   23  A    between atoms: _54  and  _56
REMARK   24  A    between atoms: _56  and  _57
REMARK   25  A    between atoms: _59  and  _61
REMARK   26  A    between atoms: _61  and  _62
REMARK   27  A    between atoms: _65  and  _67
REMARK   28  A    between atoms: _67  and  _68
REMARK   29  A    between atoms: _67  and  _70
REMARK   30  A    between atoms: _70  and  _71
REMARK   31  A    between atoms: _74  and  _76
REMARK   32  A    between atoms: _76  and  _77
REMARK   33  A    between atoms: _76  and  _79
REMARK   34  A    between atoms: _79  and  _80
REMARK   35  A    between atoms: _85  and  _87
REMARK   36  A    between atoms: _87  and  _88
REMARK   37  A    between atoms: _87  and  _90
REMARK   38  A    between atoms: _90  and  _91
REMARK   39  A    between atoms: _94  and  _96
REMARK   40  A    between atoms: _96  and  _97
REMARK   41  A    between atoms: _96  and  _99
REMARK   42  A    between atoms: _102  and  _104
REMARK   43  A    between atoms: _104  and  _105
REMARK   44  A    between atoms: _104  and  _107
REMARK   45  A    between atoms: _107  and  _108
REMARK   46  A    between atoms: _108  and  _109
REMARK   47  A    between atoms: _109  and  _110
REMARK   48  A    between atoms: _110  and  _111
REMARK   49  A    between atoms: _115  and  _117
REMARK   50  A    between atoms: _117  and  _118
REMARK   51  A    between atoms: _117  and  _120
REMARK   52  A    between atoms: _120  and  _121
REMARK   53  A    between atoms: _121  and  _122
REMARK   54  A    between atoms: _124  and  _126
REMARK   55  A    between atoms: _126  and  _127
REMARK   56  A    between atoms: _126  and  _129
REMARK   57  A    between atoms: _129  and  _130
REMARK   58  A    between atoms: _133  and  _135
REMARK   59  A    between atoms: _135  and  _136
REMARK   60  A    between atoms: _138  and  _140
REMARK   61  A    between atoms: _140  and  _141
REMARK   62  A    between atoms: _143  and  _145
REMARK   63  A    between atoms: _145  and  _146
REMARK   64  A    between atoms: _145  and  _148
REMARK   65  A    between atoms: _148  and  _149
REMARK   66  A    between atoms: _152  and  _154
REMARK   67  A    between atoms: _154  and  _155
REMARK   68  A    between atoms: _157  and  _159
REMARK   69  A    between atoms: _159  and  _160
REMARK   70  A    between atoms: _162  and  _164
REMARK   71  A    between atoms: _164  and  _165
REMARK   72  A    between atoms: _164  and  _167
REMARK   73  A    between atoms: _167  and  _168
REMARK   74  A    between atoms: _174  and  _176
REMARK   75  A    between atoms: _176  and  _177
REMARK   76  A    between atoms: _176  and  _179
REMARK   77  A    between atoms: _179  and  _180
REMARK   78  A    between atoms: _183  and  _185
REMARK   79  A    between atoms: _185  and  _186
REMARK   80  A    between atoms: _185  and  _188
REMARK   81  A    between atoms: _191  and  _193
REMARK   82  A    between atoms: _193  and  _194
REMARK   83  A    between atoms: _193  and  _196
REMARK   84  A    between atoms: _196  and  _197
REMARK   85  A    between atoms: _201  and  _202
REMARK   86  A    between atoms: _207  and  _209
REMARK   87  A    between atoms: _209  and  _210
REMARK   88  A    between atoms: _209  and  _212
REMARK   89  A    between atoms: _212  and  _213
REMARK   90  A    between atoms: _217  and  _218
REMARK   91  A    between atoms: _223  and  _225
REMARK   92  A    between atoms: _225  and  _226
REMARK   93  A    between atoms: _225  and  _228
REMARK   94  A    between atoms: _231  and  _233
REMARK   95  A    between atoms: _233  and  _234
REMARK   96  A    between atoms: _233  and  _236
REMARK   97  A    between atoms: _236  and  _237
REMARK   98  A    between atoms: _242  and  _244
REMARK   99  A    between atoms: _244  and  _245
REMARK  100  A    between atoms: _244  and  _247
REMARK  101  A    between atoms: _247  and  _248
REMARK  102  A    between atoms: _251  and  _253
REMARK  103  A    between atoms: _253  and  _254
REMARK  104  A    between atoms: _253  and  _256
REMARK  105  A    between atoms: _256  and  _257
REMARK  106  A    between atoms: _260  and  _262
REMARK  107  A    between atoms: _262  and  _263
REMARK  108  A    between atoms: _265  and  _267
REMARK  109  A    between atoms: _267  and  _268
REMARK  110  A    between atoms: _267  and  _270
REMARK  111  A    between atoms: _270  and  _271
REMARK  112  A    between atoms: _271  and  _272
REMARK  113  A    between atoms: _272  and  _273
REMARK  114  A    between atoms: _282  and  _284
REMARK  115  A    between atoms: _284  and  _285
REMARK  116  A    between atoms: _284  and  _287
REMARK  117  A    between atoms: _287  and  _288
REMARK  118  A    between atoms: _293  and  _295
REMARK  119  A    between atoms: _295  and  _296
REMARK  120  A    between atoms: _295  and  _298
REMARK  121  A    between atoms: _298  and  _299
REMARK  122  A    between atoms: _299  and  _300
REMARK  123  A    between atoms: _300  and  _301
REMARK  124  A    between atoms: _310  and  _312
REMARK  125  A    between atoms: _312  and  _313
REMARK  126  A    between atoms: _312  and  _315
REMARK  127  A    between atoms: _315  and  _316
REMARK  128  A    between atoms: _319  and  _321
REMARK  129  A    between atoms: _321  and  _322
REMARK  130  A    between atoms: _321  and  _324
REMARK  131  A    between atoms: _324  and  _325
REMARK  132  A    between atoms: _328  and  _330
REMARK  133  A    between atoms: _330  and  _331
REMARK  134  A    between atoms: _330  and  _333
REMARK  135  A    between atoms: _333  and  _334
REMARK  136  A    between atoms: _337  and  _339
REMARK  137  A    between atoms: _339  and  _340
REMARK  138  A    between atoms: _339  and  _342
REMARK  139  A    between atoms: _342  and  _343
REMARK  140  A    between atoms: _346  and  _348
REMARK  141  A    between atoms: _348  and  _349
REMARK  142  A    between atoms: _351  and  _353
REMARK  143  A    between atoms: _353  and  _354
REMARK  144  A    between atoms: _357  and  _359
REMARK  145  A    between atoms: _359  and  _360
REMARK  146  A    between atoms: _359  and  _362
REMARK  147  A    between atoms: _362  and  _363
REMARK  148  A    between atoms: _366  and  _368
REMARK  149  A    between atoms: _368  and  _369
REMARK  150  A    between atoms: _368  and  _371
REMARK  151  A    between atoms: _371  and  _372
REMARK  152  A    between atoms: _377  and  _379
REMARK  153  A    between atoms: _379  and  _380
REMARK  154  A    between atoms: _379  and  _382
REMARK  155  A    between atoms: _382  and  _383
REMARK  156  A    between atoms: _386  and  _388
REMARK  157  A    between atoms: _388  and  _389
REMARK  158  A    between atoms: _388  and  _391
REMARK  159  A    between atoms: _394  and  _396
REMARK  160  A    between atoms: _396  and  _397
REMARK  161  A    between atoms: _396  and  _399
REMARK  162  A    between atoms: _399  and  _400
REMARK  163  A    between atoms: _400  and  _401
REMARK  164  A    between atoms: _401  and  _402
REMARK  165  A    between atoms: _402  and  _403
REMARK  166  A    between atoms: _407  and  _409
REMARK  167  A    between atoms: _409  and  _410
REMARK  168  A    between atoms: _409  and  _412
REMARK  169  A    between atoms: _412  and  _413
REMARK  170  A    between atoms: _413  and  _414
REMARK  171  A    between atoms: _416  and  _418
REMARK  172  A    between atoms: _418  and  _419
REMARK  173  A    between atoms: _418  and  _421
REMARK  174  A    between atoms: _421  and  _422
REMARK  175  A    between atoms: _425  and  _427
REMARK  176  A    between atoms: _427  and  _428
REMARK  177  A    between atoms: _430  and  _432
REMARK  178  A    between atoms: _432  and  _433
REMARK  179  A    between atoms: _435  and  _437
REMARK  180  A    between atoms: _437  and  _438
REMARK  181  A    between atoms: _437  and  _440
REMARK  182  A    between atoms: _440  and  _441
REMARK  183  A    between atoms: _444  and  _446
REMARK  184  A    between atoms: _446  and  _447
REMARK  185  A    between atoms: _449  and  _451
REMARK  186  A    between atoms: _451  and  _452
REMARK  187  A    between atoms: _454  and  _456
REMARK  188  A    between atoms: _456  and  _457
REMARK  189  A    between atoms: _456  and  _459
REMARK  190  A    between atoms: _459  and  _460
REMARK  191  A    between atoms: _466  and  _468
REMARK  192  A    between atoms: _468  and  _469
REMARK  193  A    between atoms: _468  and  _471
REMARK  194  A    between atoms: _471  and  _472
REMARK  195  A    between atoms: _475  and  _477
REMARK  196  A    between atoms: _477  and  _478
REMARK  197  A    between atoms: _477  and  _480
REMARK  198  A    between atoms: _483  and  _485
REMARK  199  A    between atoms: _485  and  _486
REMARK  200  A    between atoms: _485  and  _488
REMARK  201  A    between atoms: _488  and  _489
REMARK  202  A    between atoms: _492  and  _494
REMARK  203  A    between atoms: _494  and  _495
REMARK  204  A    between atoms: _494  and  _497
REMARK  205  A    between atoms: _497  and  _498
REMARK  206  A    between atoms: _502  and  _503
REMARK  207  A    between atoms: _508  and  _510
REMARK  208  A    between atoms: _510  and  _511
REMARK  209  A    between atoms: _510  and  _513
REMARK  210  A    between atoms: _516  and  _518
REMARK  211  A    between atoms: _518  and  _519
REMARK  212  A    between atoms: _518  and  _521
REMARK  213  A    between atoms: _521  and  _522
REMARK  214  A    between atoms: _527  and  _529
REMARK  215  A    between atoms: _529  and  _530
REMARK  216  A    between atoms: _529  and  _532
REMARK  217  A    between atoms: _532  and  _533
REMARK  218  A    between atoms: _536  and  _538
REMARK  219  A    between atoms: _538  and  _539
REMARK  220  A    between atoms: _541  and  _543
REMARK  221  A    between atoms: _543  and  _544
REMARK  222  A    between atoms: _543  and  _546
REMARK  223  A    between atoms: _546  and  _547
REMARK  224  A    between atoms: _547  and  _548
REMARK  225  A    between atoms: _548  and  _549
REMARK  226  A    between atoms: _558  and  _560
REMARK  227  A    between atoms: _560  and  _561
REMARK  228  A    between atoms: _560  and  _563
REMARK  229  A    between atoms: _563  and  _564
REMARK                            x       y       z     vdW  Elec       q    Type
REMARK                         _______ _______ _______ _____ _____    ______ ____
ROOT
ATOM      1  O   HOH     1       7.280  23.323   8.665  0.00  0.00    +0.000 OA
ENDROOT
TORSDOF 0
REMARK  Name = ../refined-set-2016/4hdb/4hdb_pocket.pdb
REMARK  229 active torsions:
REMARK  status: ('A' for Active; 'I' for Inactive)
REMARK    1  A    between atoms: _1  and  _3
REMARK    2  A    between atoms: _3  and  _4
REMARK    3  A    between atoms: _3  and  _6
REMARK    4  A    between atoms: _6  and  _7
REMARK    5  A    between atoms: _7  and  _8
REMARK    6  A    between atoms: _8  and  _9
REMARK    7  A    between atoms: _18  and  _20
REMARK    8  A    between atoms: _20  and  _21
REMARK    9  A    between atoms: _20  and  _23
REMARK   10  A    between atoms: _23  and  _24
REMARK   11  A    between atoms: _27  and  _29
REMARK   12  A    between atoms: _29  and  _30
REMARK   13  A    between atoms: _29  and  _32
REMARK   14  A    between atoms: _32  and  _33
REMARK   15  A    between atoms: _36  and  _38
REMARK   16  A    between atoms: _38  and  _39
REMARK   17  A    between atoms: _38  and  _41
REMARK   18  A    between atoms: _41  and  _42
REMARK   19  A    between atoms: _45  and  _47
REMARK   20  A    between atoms: _47  and  _48
REMARK   21  A    between atoms: _47  and  _50
REMARK   22  A    between atoms: _50  and  _51
REMARK   23  A    between atoms: _54  and  _56
REMARK   24  A    between atoms: _56  and  _57
REMARK   25  A    between atoms: _59  and  _61
REMARK   26  A    between atoms: _61  and  _62
REMARK   27  A    between atoms: _65  and  _67
REMARK   28  A    between atoms: _67  and  _68
REMARK   29  A    between atoms: _67  and  _70
REMARK   30  A    between atoms: _70  and  _71
REMARK   31  A    between atoms: _74  and  _76
REMARK   32  A    between atoms: _76  and  _77
REMARK   33  A    between atoms: _76  and  _79
REMARK   34  A    between atoms: _79  and  _80
REMARK   35  A    between atoms: _85  and  _87
REMARK   36  A    between atoms: _87  and  _88
REMARK   37  A    between atoms: _87  and  _90
REMARK   38  A    between atoms: _90  and  _91
REMARK   39  A    between atoms: _94  and  _96
REMARK   40  A    between atoms: _96  and  _97
REMARK   41  A    between atoms: _96  and  _99
REMARK   42  A    between atoms: _102  and  _104
REMARK   43  A    between atoms: _104  and  _105
REMARK   44  A    between atoms: _104  and  _107
REMARK   45  A    between atoms: _107  and  _108
REMARK   46  A    between atoms: _108  and  _109
REMARK   47  A    between atoms: _109  and  _110
REMARK   48  A    between atoms: _110  and  _111
REMARK   49  A    between atoms: _115  and  _117
REMARK   50  A    between atoms: _117  and  _118
REMARK   51  A    between atoms: _117  and  _120
REMARK   52  A    between atoms: _120  and  _121
REMARK   53  A    between atoms: _121  and  _122
REMARK   54  A    between atoms: _124  and  _126
REMARK   55  A    between atoms: _126  and  _127
REMARK   56  A    between atoms: _126  and  _129
REMARK   57  A    between atoms: _129  and  _130
REMARK   58  A    between atoms: _133  and  _135
REMARK   59  A    between atoms: _135  and  _136
REMARK   60  A    between atoms: _138  and  _140
REMARK   61  A    between atoms: _140  and  _141
REMARK   62  A    between atoms: _143  and  _145
REMARK   63  A    between atoms: _145  and  _146
REMARK   64  A    between atoms: _145  and  _148
REMARK   65  A    between atoms: _148  and  _149
REMARK   66  A    between atoms: _152  and  _154
REMARK   67  A    between atoms: _154  and  _155
REMARK   68  A    between atoms: _157  and  _159
REMARK   69  A    between atoms: _159  and  _160
REMARK   70  A    between atoms: _162  and  _164
REMARK   71  A    between atoms: _164  and  _165
REMARK   72  A    between atoms: _164  and  _167
REMARK   73  A    between atoms: _167  and  _168
REMARK   74  A    between atoms: _174  and  _176
REMARK   75  A    between atoms: _176  and  _177
REMARK   76  A    between atoms: _176  and  _179
REMARK   77  A    between atoms: _179  and  _180
REMARK   78  A    between atoms: _183  and  _185
REMARK   79  A    between atoms: _185  and  _186
REMARK   80  A    between atoms: _185  and  _188
REMARK   81  A    between atoms: _191  and  _193
REMARK   82  A    between atoms: _193  and  _194
REMARK   83  A    between atoms: _193  and  _196
REMARK   84  A    between atoms: _196  and  _197
REMARK   85  A    between atoms: _201  and  _202
REMARK   86  A    between atoms: _207  and  _209
REMARK   87  A    between atoms: _209  and  _210
REMARK   88  A    between atoms: _209  and  _212
REMARK   89  A    between atoms: _212  and  _213
REMARK   90  A    between atoms: _217  and  _218
REMARK   91  A    between atoms: _223  and  _225
REMARK   92  A    between atoms: _225  and  _226
REMARK   93  A    between atoms: _225  and  _228
REMARK   94  A    between atoms: _231  and  _233
REMARK   95  A    between atoms: _233  and  _234
REMARK   96  A    between atoms: _233  and  _236
REMARK   97  A    between atoms: _236  and  _237
REMARK   98  A    between atoms: _242  and  _244
REMARK   99  A    between atoms: _244  and  _245
REMARK  100  A    between atoms: _244  and  _247
REMARK  101  A    between atoms: _247  and  _248
REMARK  102  A    between atoms: _251  and  _253
REMARK  103  A    between atoms: _253  and  _254
REMARK  104  A    between atoms: _253  and  _256
REMARK  105  A    between atoms: _256  and  _257
REMARK  106  A    between atoms: _260  and  _262
REMARK  107  A    between atoms: _262  and  _263
REMARK  108  A    between atoms: _265  and  _267
REMARK  109  A    between atoms: _267  and  _268
REMARK  110  A    between atoms: _267  and  _270
REMARK  111  A    between atoms: _270  and  _271
REMARK  112  A    between atoms: _271  and  _272
REMARK  113  A    between atoms: _272  and  _273
REMARK  114  A    between atoms: _282  and  _284
REMARK  115  A    between atoms: _284  and  _285
REMARK  116  A    between atoms: _284  and  _287
REMARK  117  A    between atoms: _287  and  _288
REMARK  118  A    between atoms: _293  and  _295
REMARK  119  A    between atoms: _295  and  _296
REMARK  120  A    between atoms: _295  and  _298
REMARK  121  A    between atoms: _298  and  _299
REMARK  122  A    between atoms: _299  and  _300
REMARK  123  A    between atoms: _300  and  _301
REMARK  124  A    between atoms: _310  and  _312
REMARK  125  A    between atoms: _312  and  _313
REMARK  126  A    between atoms: _312  and  _315
REMARK  127  A    between atoms: _315  and  _316
REMARK  128  A    between atoms: _319  and  _321
REMARK  129  A    between atoms: _321  and  _322
REMARK  130  A    between atoms: _321  and  _324
REMARK  131  A    between atoms: _324  and  _325
REMARK  132  A    between atoms: _328  and  _330
REMARK  133  A    between atoms: _330  and  _331
REMARK  134  A    between atoms: _330  and  _333
REMARK  135  A    between atoms: _333  and  _334
REMARK  136  A    between atoms: _337  and  _339
REMARK  137  A    between atoms: _339  and  _340
REMARK  138  A    between atoms: _339  and  _342
REMARK  139  A    between atoms: _342  and  _343
REMARK  140  A    between atoms: _346  and  _348
REMARK  141  A    between atoms: _348  and  _349
REMARK  142  A    between atoms: _351  and  _353
REMARK  143  A    between atoms: _353  and  _354
REMARK  144  A    between atoms: _357  and  _359
REMARK  145  A    between atoms: _359  and  _360
REMARK  146  A    between atoms: _359  and  _362
REMARK  147  A    between atoms: _362  and  _363
REMARK  148  A    between atoms: _366  and  _368
REMARK  149  A    between atoms: _368  and  _369
REMARK  150  A    between atoms: _368  and  _371
REMARK  151  A    between atoms: _371  and  _372
REMARK  152  A    between atoms: _377  and  _379
REMARK  153  A    between atoms: _379  and  _380
REMARK  154  A    between atoms: _379  and  _382
REMARK  155  A    between atoms: _382  and  _383
REMARK  156  A    between atoms: _386  and  _388
REMARK  157  A    between atoms: _388  and  _389
REMARK  158  A    between atoms: _388  and  _391
REMARK  159  A    between atoms: _394  and  _396
REMARK  160  A    between atoms: _396  and  _397
REMARK  161  A    between atoms: _396  and  _399
REMARK  162  A    between atoms: _399  and  _400
REMARK  163  A    between atoms: _400  and  _401
REMARK  164  A    between atoms: _401  and  _402
REMARK  165  A    between atoms: _402  and  _403
REMARK  166  A    between atoms: _407  and  _409
REMARK  167  A    between atoms: _409  and  _410
REMARK  168  A    between atoms: _409  and  _412
REMARK  169  A    between atoms: _412  and  _413
REMARK  170  A    between atoms: _413  and  _414
REMARK  171  A    between atoms: _416  and  _418
REMARK  172  A    between atoms: _418  and  _419
REMARK  173  A    between atoms: _418  and  _421
REMARK  174  A    between atoms: _421  and  _422
REMARK  175  A    between atoms: _425  and  _427
REMARK  176  A    between atoms: _427  and  _428
REMARK  177  A    between atoms: _430  and  _432
REMARK  178  A    between atoms: _432  and  _433
REMARK  179  A    between atoms: _435  and  _437
REMARK  180  A    between atoms: _437  and  _438
REMARK  181  A    between atoms: _437  and  _440
REMARK  182  A    between atoms: _440  and  _441
REMARK  183  A    between atoms: _444  and  _446
REMARK  184  A    between atoms: _446  and  _447
REMARK  185  A    between atoms: _449  and  _451
REMARK  186  A    between atoms: _451  and  _452
REMARK  187  A    between atoms: _454  and  _456
REMARK  188  A    between atoms: _456  and  _457
REMARK  189  A    between atoms: _456  and  _459
REMARK  190  A    between atoms: _459  and  _460
REMARK  191  A    between atoms: _466  and  _468
REMARK  192  A    between atoms: _468  and  _469
REMARK  193  A    between atoms: _468  and  _471
REMARK  194  A    between atoms: _471  and  _472
REMARK  195  A    between atoms: _475  and  _477
REMARK  196  A    between atoms: _477  and  _478
REMARK  197  A    between atoms: _477  and  _480
REMARK  198  A    between atoms: _483  and  _485
REMARK  199  A    between atoms: _485  and  _486
REMARK  200  A    between atoms: _485  and  _488
REMARK  201  A    between atoms: _488  and  _489
REMARK  202  A    between atoms: _492  and  _494
REMARK  203  A    between atoms: _494  and  _495
REMARK  204  A    between atoms: _494  and  _497
REMARK  205  A    between atoms: _497  and  _498
REMARK  206  A    between atoms: _502  and  _503
REMARK  207  A    between atoms: _508  and  _510
REMARK  208  A    between atoms: _510  and  _511
REMARK  209  A    between atoms: _510  and  _513
REMARK  210  A    between atoms: _516  and  _518
REMARK  211  A    between atoms: _518  and  _519
REMARK  212  A    between atoms: _518  and  _521
REMARK  213  A    between atoms: _521  and  _522
REMARK  214  A    between atoms: _527  and  _529
REMARK  215  A    between atoms: _529  and  _530
REMARK  216  A    between atoms: _529  and  _532
REMARK  217  A    between atoms: _532  and  _533
REMARK  218  A    between atoms: _536  and  _538
REMARK  219  A    between atoms: _538  and  _539
REMARK  220  A    between atoms: _541  and  _543
REMARK  221  A    between atoms: _543  and  _544
REMARK  222  A    between atoms: _543  and  _546
REMARK  223  A    between atoms: _546  and  _547
REMARK  224  A    between atoms: _547  and  _548
REMARK  225  A    between atoms: _548  and  _549
REMARK  226  A    between atoms: _558  and  _560
REMARK  227  A    between atoms: _560  and  _561
REMARK  228  A    between atoms: _560  and  _563
REMARK  229  A    between atoms: _563  and  _564
REMARK                            x       y       z     vdW  Elec       q    Type
REMARK                         _______ _______ _______ _____ _____    ______ ____
ROOT
ATOM      1  O   UNL     1      26.861  24.183  18.166  0.00  0.00    +0.000 OA
ATOM      2  O   UNL     1      27.224  25.450  18.189  0.00  0.00    +0.000 OA
ENDROOT
TORSDOF 0
REMARK  Name = ../refined-set-2016/4hdb/4hdb_pocket.pdb
REMARK  229 active torsions:
REMARK  status: ('A' for Active; 'I' for Inactive)
REMARK    1  A    between atoms: _1  and  _3
REMARK    2  A    between atoms: _3  and  _4
REMARK    3  A    between atoms: _3  and  _6
REMARK    4  A    between atoms: _6  and  _7
REMARK    5  A    between atoms: _7  and  _8
REMARK    6  A    between atoms: _8  and  _9
REMARK    7  A    between atoms: _18  and  _20
REMARK    8  A    between atoms: _20  and  _21
REMARK    9  A    between atoms: _20  and  _23
REMARK   10  A    between atoms: _23  and  _24
REMARK   11  A    between atoms: _27  and  _29
REMARK   12  A    between atoms: _29  and  _30
REMARK   13  A    between atoms: _29  and  _32
REMARK   14  A    between atoms: _32  and  _33
REMARK   15  A    between atoms: _36  and  _38
REMARK   16  A    between atoms: _38  and  _39
REMARK   17  A    between atoms: _38  and  _41
REMARK   18  A    between atoms: _41  and  _42
REMARK   19  A    between atoms: _45  and  _47
REMARK   20  A    between atoms: _47  and  _48
REMARK   21  A    between atoms: _47  and  _50
REMARK   22  A    between atoms: _50  and  _51
REMARK   23  A    between atoms: _54  and  _56
REMARK   24  A    between atoms: _56  and  _57
REMARK   25  A    between atoms: _59  and  _61
REMARK   26  A    between atoms: _61  and  _62
REMARK   27  A    between atoms: _65  and  _67
REMARK   28  A    between atoms: _67  and  _68
REMARK   29  A    between atoms: _67  and  _70
REMARK   30  A    between atoms: _70  and  _71
REMARK   31  A    between atoms: _74  and  _76
REMARK   32  A    between atoms: _76  and  _77
REMARK   33  A    between atoms: _76  and  _79
REMARK   34  A    between atoms: _79  and  _80
REMARK   35  A    between atoms: _85  and  _87
REMARK   36  A    between atoms: _87  and  _88
REMARK   37  A    between atoms: _87  and  _90
REMARK   38  A    between atoms: _90  and  _91
REMARK   39  A    between atoms: _94  and  _96
REMARK   40  A    between atoms: _96  and  _97
REMARK   41  A    between atoms: _96  and  _99
REMARK   42  A    between atoms: _102  and  _104
REMARK   43  A    between atoms: _104  and  _105
REMARK   44  A    between atoms: _104  and  _107
REMARK   45  A    between atoms: _107  and  _108
REMARK   46  A    between atoms: _108  and  _109
REMARK   47  A    between atoms: _109  and  _110
REMARK   48  A    between atoms: _110  and  _111
REMARK   49  A    between atoms: _115  and  _117
REMARK   50  A    between atoms: _117  and  _118
REMARK   51  A    between atoms: _117  and  _120
REMARK   52  A    between atoms: _120  and  _121
REMARK   53  A    between atoms: _121  and  _122
REMARK   54  A    between atoms: _124  and  _126
REMARK   55  A    between atoms: _126  and  _127
REMARK   56  A    between atoms: _126  and  _129
REMARK   57  A    between atoms: _129  and  _130
REMARK   58  A    between atoms: _133  and  _135
REMARK   59  A    between atoms: _135  and  _136
REMARK   60  A    between atoms: _138  and  _140
REMARK   61  A    between atoms: _140  and  _141
REMARK   62  A    between atoms: _143  and  _145
REMARK   63  A    between atoms: _145  and  _146
REMARK   64  A    between atoms: _145  and  _148
REMARK   65  A    between atoms: _148  and  _149
REMARK   66  A    between atoms: _152  and  _154
REMARK   67  A    between atoms: _154  and  _155
REMARK   68  A    between atoms: _157  and  _159
REMARK   69  A    between atoms: _159  and  _160
REMARK   70  A    between atoms: _162  and  _164
REMARK   71  A    between atoms: _164  and  _165
REMARK   72  A    between atoms: _164  and  _167
REMARK   73  A    between atoms: _167  and  _168
REMARK   74  A    between atoms: _174  and  _176
REMARK   75  A    between atoms: _176  and  _177
REMARK   76  A    between atoms: _176  and  _179
REMARK   77  A    between atoms: _179  and  _180
REMARK   78  A    between atoms: _183  and  _185
REMARK   79  A    between atoms: _185  and  _186
REMARK   80  A    between atoms: _185  and  _188
REMARK   81  A    between atoms: _191  and  _193
REMARK   82  A    between atoms: _193  and  _194
REMARK   83  A    between atoms: _193  and  _196
REMARK   84  A    between atoms: _196  and  _197
REMARK   85  A    between atoms: _201  and  _202
REMARK   86  A    between atoms: _207  and  _209
REMARK   87  A    between atoms: _209  and  _210
REMARK   88  A    between atoms: _209  and  _212
REMARK   89  A    between atoms: _212  and  _213
REMARK   90  A    between atoms: _217  and  _218
REMARK   91  A    between atoms: _223  and  _225
REMARK   92  A    between atoms: _225  and  _226
REMARK   93  A    between atoms: _225  and  _228
REMARK   94  A    between atoms: _231  and  _233
REMARK   95  A    between atoms: _233  and  _234
REMARK   96  A    between atoms: _233  and  _236
REMARK   97  A    between atoms: _236  and  _237
REMARK   98  A    between atoms: _242  and  _244
REMARK   99  A    between atoms: _244  and  _245
REMARK  100  A    between atoms: _244  and  _247
REMARK  101  A    between atoms: _247  and  _248
REMARK  102  A    between atoms: _251  and  _253
REMARK  103  A    between atoms: _253  and  _254
REMARK  104  A    between atoms: _253  and  _256
REMARK  105  A    between atoms: _256  and  _257
REMARK  106  A    between atoms: _260  and  _262
REMARK  107  A    between atoms: _262  and  _263
REMARK  108  A    between atoms: _265  and  _267
REMARK  109  A    between atoms: _267  and  _268
REMARK  110  A    between atoms: _267  and  _270
REMARK  111  A    between atoms: _270  and  _271
REMARK  112  A    between atoms: _271  and  _272
REMARK  113  A    between atoms: _272  and  _273
REMARK  114  A    between atoms: _282  and  _284
REMARK  115  A    between atoms: _284  and  _285
REMARK  116  A    between atoms: _284  and  _287
REMARK  117  A    between atoms: _287  and  _288
REMARK  118  A    between atoms: _293  and  _295
REMARK  119  A    between atoms: _295  and  _296
REMARK  120  A    between atoms: _295  and  _298
REMARK  121  A    between atoms: _298  and  _299
REMARK  122  A    between atoms: _299  and  _300
REMARK  123  A    between atoms: _300  and  _301
REMARK  124  A    between atoms: _310  and  _312
REMARK  125  A    between atoms: _312  and  _313
REMARK  126  A    between atoms: _312  and  _315
REMARK  127  A    between atoms: _315  and  _316
REMARK  128  A    between atoms: _319  and  _321
REMARK  129  A    between atoms: _321  and  _322
REMARK  130  A    between atoms: _321  and  _324
REMARK  131  A    between atoms: _324  and  _325
REMARK  132  A    between atoms: _328  and  _330
REMARK  133  A    between atoms: _330  and  _331
REMARK  134  A    between atoms: _330  and  _333
REMARK  135  A    between atoms: _333  and  _334
REMARK  136  A    between atoms: _337  and  _339
REMARK  137  A    between atoms: _339  and  _340
REMARK  138  A    between atoms: _339  and  _342
REMARK  139  A    between atoms: _342  and  _343
REMARK  140  A    between atoms: _346  and  _348
REMARK  141  A    between atoms: _348  and  _349
REMARK  142  A    between atoms: _351  and  _353
REMARK  143  A    between atoms: _353  and  _354
REMARK  144  A    between atoms: _357  and  _359
REMARK  145  A    between atoms: _359  and  _360
REMARK  146  A    between atoms: _359  and  _362
REMARK  147  A    between atoms: _362  and  _363
REMARK  148  A    between atoms: _366  and  _368
REMARK  149  A    between atoms: _368  and  _369
REMARK  150  A    between atoms: _368  and  _371
REMARK  151  A    between atoms: _371  and  _372
REMARK  152  A    between atoms: _377  and  _379
REMARK  153  A    between atoms: _379  and  _380
REMARK  154  A    between atoms: _379  and  _382
REMARK  155  A    between atoms: _382  and  _383
REMARK  156  A    between atoms: _386  and  _388
REMARK  157  A    between atoms: _388  and  _389
REMARK  158  A    between atoms: _388  and  _391
REMARK  159  A    between atoms: _394  and  _396
REMARK  160  A    between atoms: _396  and  _397
REMARK  161  A    between atoms: _396  and  _399
REMARK  162  A    between atoms: _399  and  _400
REMARK  163  A    between atoms: _400  and  _401
REMARK  164  A    between atoms: _401  and  _402
REMARK  165  A    between atoms: _402  and  _403
REMARK  166  A    between atoms: _407  and  _409
REMARK  167  A    between atoms: _409  and  _410
REMARK  168  A    between atoms: _409  and  _412
REMARK  169  A    between atoms: _412  and  _413
REMARK  170  A    between atoms: _413  and  _414
REMARK  171  A    between atoms: _416  and  _418
REMARK  172  A    between atoms: _418  and  _419
REMARK  173  A    between atoms: _418  and  _421
REMARK  174  A    between atoms: _421  and  _422
REMARK  175  A    between atoms: _425  and  _427
REMARK  176  A    between atoms: _427  and  _428
REMARK  177  A    between atoms: _430  and  _432
REMARK  178  A    between atoms: _432  and  _433
REMARK  179  A    between atoms: _435  and  _437
REMARK  180  A    between atoms: _437  and  _438
REMARK  181  A    between atoms: _437  and  _440
REMARK  182  A    between atoms: _440  and  _441
REMARK  183  A    between atoms: _444  and  _446
REMARK  184  A    between atoms: _446  and  _447
REMARK  185  A    between atoms: _449  and  _451
REMARK  186  A    between atoms: _451  and  _452
REMARK  187  A    between atoms: _454  and  _456
REMARK  188  A    between atoms: _456  and  _457
REMARK  189  A    between atoms: _456  and  _459
REMARK  190  A    between atoms: _459  and  _460
REMARK  191  A    between atoms: _466  and  _468
REMARK  192  A    between atoms: _468  and  _469
REMARK  193  A    between atoms: _468  and  _471
REMARK  194  A    between atoms: _471  and  _472
REMARK  195  A    between atoms: _475  and  _477
REMARK  196  A    between atoms: _477  and  _478
REMARK  197  A    between atoms: _477  and  _480
REMARK  198  A    between atoms: _483  and  _485
REMARK  199  A    between atoms: _485  and  _486
REMARK  200  A    between atoms: _485  and  _488
REMARK  201  A    between atoms: _488  and  _489
REMARK  202  A    between atoms: _492  and  _494
REMARK  203  A    between atoms: _494  and  _495
REMARK  204  A    between atoms: _494  and  _497
REMARK  205  A    between atoms: _497  and  _498
REMARK  206  A    between atoms: _502  and  _503
REMARK  207  A    between atoms: _508  and  _510
REMARK  208  A    between atoms: _510  and  _511
REMARK  209  A    between atoms: _510  and  _513
REMARK  210  A    between atoms: _516  and  _518
REMARK  211  A    between atoms: _518  and  _519
REMARK  212  A    between atoms: _518  and  _521
REMARK  213  A    between atoms: _521  and  _522
REMARK  214  A    between atoms: _527  and  _529
REMARK  215  A    between atoms: _529  and  _530
REMARK  216  A    between atoms: _529  and  _532
REMARK  217  A    between atoms: _532  and  _533
REMARK  218  A    between atoms: _536  and  _538
REMARK  219  A    between atoms: _538  and  _539
REMARK  220  A    between atoms: _541  and  _543
REMARK  221  A    between atoms: _543  and  _544
REMARK  222  A    between atoms: _543  and  _546
REMARK  223  A    between atoms: _546  and  _547
REMARK  224  A    between atoms: _547  and  _548
REMARK  225  A    between atoms: _548  and  _549
REMARK  226  A    between atoms: _558  and  _560
REMARK  227  A    between atoms: _560  and  _561
REMARK  228  A    between atoms: _560  and  _563
REMARK  229  A    between atoms: _563  and  _564
REMARK                            x       y       z     vdW  Elec       q    Type
REMARK                         _______ _______ _______ _____ _____    ______ ____
ROOT
ATOM      1  O   HOH     1       9.444  18.792  12.002  0.00  0.00    +0.000 OA
ENDROOT
TORSDOF 0
REMARK  Name = ../refined-set-2016/4hdb/4hdb_pocket.pdb
REMARK  229 active torsions:
REMARK  status: ('A' for Active; 'I' for Inactive)
REMARK    1  A    between atoms: _1  and  _3
REMARK    2  A    between atoms: _3  and  _4
REMARK    3  A    between atoms: _3  and  _6
REMARK    4  A    between atoms: _6  and  _7
REMARK    5  A    between atoms: _7  and  _8
REMARK    6  A    between atoms: _8  and  _9
REMARK    7  A    between atoms: _18  and  _20
REMARK    8  A    between atoms: _20  and  _21
REMARK    9  A    between atoms: _20  and  _23
REMARK   10  A    between atoms: _23  and  _24
REMARK   11  A    between atoms: _27  and  _29
REMARK   12  A    between atoms: _29  and  _30
REMARK   13  A    between atoms: _29  and  _32
REMARK   14  A    between atoms: _32  and  _33
REMARK   15  A    between atoms: _36  and  _38
REMARK   16  A    between atoms: _38  and  _39
REMARK   17  A    between atoms: _38  and  _41
REMARK   18  A    between atoms: _41  and  _42
REMARK   19  A    between atoms: _45  and  _47
REMARK   20  A    between atoms: _47  and  _48
REMARK   21  A    between atoms: _47  and  _50
REMARK   22  A    between atoms: _50  and  _51
REMARK   23  A    between atoms: _54  and  _56
REMARK   24  A    between atoms: _56  and  _57
REMARK   25  A    between atoms: _59  and  _61
REMARK   26  A    between atoms: _61  and  _62
REMARK   27  A    between atoms: _65  and  _67
REMARK   28  A    between atoms: _67  and  _68
REMARK   29  A    between atoms: _67  and  _70
REMARK   30  A    between atoms: _70  and  _71
REMARK   31  A    between atoms: _74  and  _76
REMARK   32  A    between atoms: _76  and  _77
REMARK   33  A    between atoms: _76  and  _79
REMARK   34  A    between atoms: _79  and  _80
REMARK   35  A    between atoms: _85  and  _87
REMARK   36  A    between atoms: _87  and  _88
REMARK   37  A    between atoms: _87  and  _90
REMARK   38  A    between atoms: _90  and  _91
REMARK   39  A    between atoms: _94  and  _96
REMARK   40  A    between atoms: _96  and  _97
REMARK   41  A    between atoms: _96  and  _99
REMARK   42  A    between atoms: _102  and  _104
REMARK   43  A    between atoms: _104  and  _105
REMARK   44  A    between atoms: _104  and  _107
REMARK   45  A    between atoms: _107  and  _108
REMARK   46  A    between atoms: _108  and  _109
REMARK   47  A    between atoms: _109  and  _110
REMARK   48  A    between atoms: _110  and  _111
REMARK   49  A    between atoms: _115  and  _117
REMARK   50  A    between atoms: _117  and  _118
REMARK   51  A    between atoms: _117  and  _120
REMARK   52  A    between atoms: _120  and  _121
REMARK   53  A    between atoms: _121  and  _122
REMARK   54  A    between atoms: _124  and  _126
REMARK   55  A    between atoms: _126  and  _127
REMARK   56  A    between atoms: _126  and  _129
REMARK   57  A    between atoms: _129  and  _130
REMARK   58  A    between atoms: _133  and  _135
REMARK   59  A    between atoms: _135  and  _136
REMARK   60  A    between atoms: _138  and  _140
REMARK   61  A    between atoms: _140  and  _141
REMARK   62  A    between atoms: _143  and  _145
REMARK   63  A    between atoms: _145  and  _146
REMARK   64  A    between atoms: _145  and  _148
REMARK   65  A    between atoms: _148  and  _149
REMARK   66  A    between atoms: _152  and  _154
REMARK   67  A    between atoms: _154  and  _155
REMARK   68  A    between atoms: _157  and  _159
REMARK   69  A    between atoms: _159  and  _160
REMARK   70  A    between atoms: _162  and  _164
REMARK   71  A    between atoms: _164  and  _165
REMARK   72  A    between atoms: _164  and  _167
REMARK   73  A    between atoms: _167  and  _168
REMARK   74  A    between atoms: _174  and  _176
REMARK   75  A    between atoms: _176  and  _177
REMARK   76  A    between atoms: _176  and  _179
REMARK   77  A    between atoms: _179  and  _180
REMARK   78  A    between atoms: _183  and  _185
REMARK   79  A    between atoms: _185  and  _186
REMARK   80  A    between atoms: _185  and  _188
REMARK   81  A    between atoms: _191  and  _193
REMARK   82  A    between atoms: _193  and  _194
REMARK   83  A    between atoms: _193  and  _196
REMARK   84  A    between atoms: _196  and  _197
REMARK   85  A    between atoms: _201  and  _202
REMARK   86  A    between atoms: _207  and  _209
REMARK   87  A    between atoms: _209  and  _210
REMARK   88  A    between atoms: _209  and  _212
REMARK   89  A    between atoms: _212  and  _213
REMARK   90  A    between atoms: _217  and  _218
REMARK   91  A    between atoms: _223  and  _225
REMARK   92  A    between atoms: _225  and  _226
REMARK   93  A    between atoms: _225  and  _228
REMARK   94  A    between atoms: _231  and  _233
REMARK   95  A    between atoms: _233  and  _234
REMARK   96  A    between atoms: _233  and  _236
REMARK   97  A    between atoms: _236  and  _237
REMARK   98  A    between atoms: _242  and  _244
REMARK   99  A    between atoms: _244  and  _245
REMARK  100  A    between atoms: _244  and  _247
REMARK  101  A    between atoms: _247  and  _248
REMARK  102  A    between atoms: _251  and  _253
REMARK  103  A    between atoms: _253  and  _254
REMARK  104  A    between atoms: _253  and  _256
REMARK  105  A    between atoms: _256  and  _257
REMARK  106  A    between atoms: _260  and  _262
REMARK  107  A    between atoms: _262  and  _263
REMARK  108  A    between atoms: _265  and  _267
REMARK  109  A    between atoms: _267  and  _268
REMARK  110  A    between atoms: _267  and  _270
REMARK  111  A    between atoms: _270  and  _271
REMARK  112  A    between atoms: _271  and  _272
REMARK  113  A    between atoms: _272  and  _273
REMARK  114  A    between atoms: _282  and  _284
REMARK  115  A    between atoms: _284  and  _285
REMARK  116  A    between atoms: _284  and  _287
REMARK  117  A    between atoms: _287  and  _288
REMARK  118  A    between atoms: _293  and  _295
REMARK  119  A    between atoms: _295  and  _296
REMARK  120  A    between atoms: _295  and  _298
REMARK  121  A    between atoms: _298  and  _299
REMARK  122  A    between atoms: _299  and  _300
REMARK  123  A    between atoms: _300  and  _301
REMARK  124  A    between atoms: _310  and  _312
REMARK  125  A    between atoms: _312  and  _313
REMARK  126  A    between atoms: _312  and  _315
REMARK  127  A    between atoms: _315  and  _316
REMARK  128  A    between atoms: _319  and  _321
REMARK  129  A    between atoms: _321  and  _322
REMARK  130  A    between atoms: _321  and  _324
REMARK  131  A    between atoms: _324  and  _325
REMARK  132  A    between atoms: _328  and  _330
REMARK  133  A    between atoms: _330  and  _331
REMARK  134  A    between atoms: _330  and  _333
REMARK  135  A    between atoms: _333  and  _334
REMARK  136  A    between atoms: _337  and  _339
REMARK  137  A    between atoms: _339  and  _340
REMARK  138  A    between atoms: _339  and  _342
REMARK  139  A    between atoms: _342  and  _343
REMARK  140  A    between atoms: _346  and  _348
REMARK  141  A    between atoms: _348  and  _349
REMARK  142  A    between atoms: _351  and  _353
REMARK  143  A    between atoms: _353  and  _354
REMARK  144  A    between atoms: _357  and  _359
REMARK  145  A    between atoms: _359  and  _360
REMARK  146  A    between atoms: _359  and  _362
REMARK  147  A    between atoms: _362  and  _363
REMARK  148  A    between atoms: _366  and  _368
REMARK  149  A    between atoms: _368  and  _369
REMARK  150  A    between atoms: _368  and  _371
REMARK  151  A    between atoms: _371  and  _372
REMARK  152  A    between atoms: _377  and  _379
REMARK  153  A    between atoms: _379  and  _380
REMARK  154  A    between atoms: _379  and  _382
REMARK  155  A    between atoms: _382  and  _383
REMARK  156  A    between atoms: _386  and  _388
REMARK  157  A    between atoms: _388  and  _389
REMARK  158  A    between atoms: _388  and  _391
REMARK  159  A    between atoms: _394  and  _396
REMARK  160  A    between atoms: _396  and  _397
REMARK  161  A    between atoms: _396  and  _399
REMARK  162  A    between atoms: _399  and  _400
REMARK  163  A    between atoms: _400  and  _401
REMARK  164  A    between atoms: _401  and  _402
REMARK  165  A    between atoms: _402  and  _403
REMARK  166  A    between atoms: _407  and  _409
REMARK  167  A    between atoms: _409  and  _410
REMARK  168  A    between atoms: _409  and  _412
REMARK  169  A    between atoms: _412  and  _413
REMARK  170  A    between atoms: _413  and  _414
REMARK  171  A    between atoms: _416  and  _418
REMARK  172  A    between atoms: _418  and  _419
REMARK  173  A    between atoms: _418  and  _421
REMARK  174  A    between atoms: _421  and  _422
REMARK  175  A    between atoms: _425  and  _427
REMARK  176  A    between atoms: _427  and  _428
REMARK  177  A    between atoms: _430  and  _432
REMARK  178  A    between atoms: _432  and  _433
REMARK  179  A    between atoms: _435  and  _437
REMARK  180  A    between atoms: _437  and  _438
REMARK  181  A    between atoms: _437  and  _440
REMARK  182  A    between atoms: _440  and  _441
REMARK  183  A    between atoms: _444  and  _446
REMARK  184  A    between atoms: _446  and  _447
REMARK  185  A    between atoms: _449  and  _451
REMARK  186  A    between atoms: _451  and  _452
REMARK  187  A    between atoms: _454  and  _456
REMARK  188  A    between atoms: _456  and  _457
REMARK  189  A    between atoms: _456  and  _459
REMARK  190  A    between atoms: _459  and  _460
REMARK  191  A    between atoms: _466  and  _468
REMARK  192  A    between atoms: _468  and  _469
REMARK  193  A    between atoms: _468  and  _471
REMARK  194  A    between atoms: _471  and  _472
REMARK  195  A    between atoms: _475  and  _477
REMARK  196  A    between atoms: _477  and  _478
REMARK  197  A    between atoms: _477  and  _480
REMARK  198  A    between atoms: _483  and  _485
REMARK  199  A    between atoms: _485  and  _486
REMARK  200  A    between atoms: _485  and  _488
REMARK  201  A    between atoms: _488  and  _489
REMARK  202  A    between atoms: _492  and  _494
REMARK  203  A    between atoms: _494  and  _495
REMARK  204  A    between atoms: _494  and  _497
REMARK  205  A    between atoms: _497  and  _498
REMARK  206  A    between atoms: _502  and  _503
REMARK  207  A    between atoms: _508  and  _510
REMARK  208  A    between atoms: _510  and  _511
REMARK  209  A    between atoms: _510  and  _513
REMARK  210  A    between atoms: _516  and  _518
REMARK  211  A    between atoms: _518  and  _519
REMARK  212  A    between atoms: _518  and  _521
REMARK  213  A    between atoms: _521  and  _522
REMARK  214  A    between atoms: _527  and  _529
REMARK  215  A    between atoms: _529  and  _530
REMARK  216  A    between atoms: _529  and  _532
REMARK  217  A    between atoms: _532  and  _533
REMARK  218  A    between atoms: _536  and  _538
REMARK  219  A    between atoms: _538  and  _539
REMARK  220  A    between atoms: _541  and  _543
REMARK  221  A    between atoms: _543  and  _544
REMARK  222  A    between atoms: _543  and  _546
REMARK  223  A    between atoms: _546  and  _547
REMARK  224  A    between atoms: _547  and  _548
REMARK  225  A    between atoms: _548  and  _549
REMARK  226  A    between atoms: _558  and  _560
REMARK  227  A    between atoms: _560  and  _561
REMARK  228  A    between atoms: _560  and  _563
REMARK  229  A    between atoms: _563  and  _564
REMARK                            x       y       z     vdW  Elec       q    Type
REMARK                         _______ _______ _______ _____ _____    ______ ____
ROOT
ATOM      1  O   UNL     1      25.682  34.264  11.627  0.00  0.00    +0.000 OA
ATOM      2  O   UNL     1      25.456  35.504  12.217  0.00  0.00    +0.000 OA
ENDROOT
TORSDOF 0
REMARK  Name = ../refined-set-2016/4hdb/4hdb_pocket.pdb
REMARK  229 active torsions:
REMARK  status: ('A' for Active; 'I' for Inactive)
REMARK    1  A    between atoms: _1  and  _3
REMARK    2  A    between atoms: _3  and  _4
REMARK    3  A    between atoms: _3  and  _6
REMARK    4  A    between atoms: _6  and  _7
REMARK    5  A    between atoms: _7  and  _8
REMARK    6  A    between atoms: _8  and  _9
REMARK    7  A    between atoms: _18  and  _20
REMARK    8  A    between atoms: _20  and  _21
REMARK    9  A    between atoms: _20  and  _23
REMARK   10  A    between atoms: _23  and  _24
REMARK   11  A    between atoms: _27  and  _29
REMARK   12  A    between atoms: _29  and  _30
REMARK   13  A    between atoms: _29  and  _32
REMARK   14  A    between atoms: _32  and  _33
REMARK   15  A    between atoms: _36  and  _38
REMARK   16  A    between atoms: _38  and  _39
REMARK   17  A    between atoms: _38  and  _41
REMARK   18  A    between atoms: _41  and  _42
REMARK   19  A    between atoms: _45  and  _47
REMARK   20  A    between atoms: _47  and  _48
REMARK   21  A    between atoms: _47  and  _50
REMARK   22  A    between atoms: _50  and  _51
REMARK   23  A    between atoms: _54  and  _56
REMARK   24  A    between atoms: _56  and  _57
REMARK   25  A    between atoms: _59  and  _61
REMARK   26  A    between atoms: _61  and  _62
REMARK   27  A    between atoms: _65  and  _67
REMARK   28  A    between atoms: _67  and  _68
REMARK   29  A    between atoms: _67  and  _70
REMARK   30  A    between atoms: _70  and  _71
REMARK   31  A    between atoms: _74  and  _76
REMARK   32  A    between atoms: _76  and  _77
REMARK   33  A    between atoms: _76  and  _79
REMARK   34  A    between atoms: _79  and  _80
REMARK   35  A    between atoms: _85  and  _87
REMARK   36  A    between atoms: _87  and  _88
REMARK   37  A    between atoms: _87  and  _90
REMARK   38  A    between atoms: _90  and  _91
REMARK   39  A    between atoms: _94  and  _96
REMARK   40  A    between atoms: _96  and  _97
REMARK   41  A    between atoms: _96  and  _99
REMARK   42  A    between atoms: _102  and  _104
REMARK   43  A    between atoms: _104  and  _105
REMARK   44  A    between atoms: _104  and  _107
REMARK   45  A    between atoms: _107  and  _108
REMARK   46  A    between atoms: _108  and  _109
REMARK   47  A    between atoms: _109  and  _110
REMARK   48  A    between atoms: _110  and  _111
REMARK   49  A    between atoms: _115  and  _117
REMARK   50  A    between atoms: _117  and  _118
REMARK   51  A    between atoms: _117  and  _120
REMARK   52  A    between atoms: _120  and  _121
REMARK   53  A    between atoms: _121  and  _122
REMARK   54  A    between atoms: _124  and  _126
REMARK   55  A    between atoms: _126  and  _127
REMARK   56  A    between atoms: _126  and  _129
REMARK   57  A    between atoms: _129  and  _130
REMARK   58  A    between atoms: _133  and  _135
REMARK   59  A    between atoms: _135  and  _136
REMARK   60  A    between atoms: _138  and  _140
REMARK   61  A    between atoms: _140  and  _141
REMARK   62  A    between atoms: _143  and  _145
REMARK   63  A    between atoms: _145  and  _146
REMARK   64  A    between atoms: _145  and  _148
REMARK   65  A    between atoms: _148  and  _149
REMARK   66  A    between atoms: _152  and  _154
REMARK   67  A    between atoms: _154  and  _155
REMARK   68  A    between atoms: _157  and  _159
REMARK   69  A    between atoms: _159  and  _160
REMARK   70  A    between atoms: _162  and  _164
REMARK   71  A    between atoms: _164  and  _165
REMARK   72  A    between atoms: _164  and  _167
REMARK   73  A    between atoms: _167  and  _168
REMARK   74  A    between atoms: _174  and  _176
REMARK   75  A    between atoms: _176  and  _177
REMARK   76  A    between atoms: _176  and  _179
REMARK   77  A    between atoms: _179  and  _180
REMARK   78  A    between atoms: _183  and  _185
REMARK   79  A    between atoms: _185  and  _186
REMARK   80  A    between atoms: _185  and  _188
REMARK   81  A    between atoms: _191  and  _193
REMARK   82  A    between atoms: _193  and  _194
REMARK   83  A    between atoms: _193  and  _196
REMARK   84  A    between atoms: _196  and  _197
REMARK   85  A    between atoms: _201  and  _202
REMARK   86  A    between atoms: _207  and  _209
REMARK   87  A    between atoms: _209  and  _210
REMARK   88  A    between atoms: _209  and  _212
REMARK   89  A    between atoms: _212  and  _213
REMARK   90  A    between atoms: _217  and  _218
REMARK   91  A    between atoms: _223  and  _225
REMARK   92  A    between atoms: _225  and  _226
REMARK   93  A    between atoms: _225  and  _228
REMARK   94  A    between atoms: _231  and  _233
REMARK   95  A    between atoms: _233  and  _234
REMARK   96  A    between atoms: _233  and  _236
REMARK   97  A    between atoms: _236  and  _237
REMARK   98  A    between atoms: _242  and  _244
REMARK   99  A    between atoms: _244  and  _245
REMARK  100  A    between atoms: _244  and  _247
REMARK  101  A    between atoms: _247  and  _248
REMARK  102  A    between atoms: _251  and  _253
REMARK  103  A    between atoms: _253  and  _254
REMARK  104  A    between atoms: _253  and  _256
REMARK  105  A    between atoms: _256  and  _257
REMARK  106  A    between atoms: _260  and  _262
REMARK  107  A    between atoms: _262  and  _263
REMARK  108  A    between atoms: _265  and  _267
REMARK  109  A    between atoms: _267  and  _268
REMARK  110  A    between atoms: _267  and  _270
REMARK  111  A    between atoms: _270  and  _271
REMARK  112  A    between atoms: _271  and  _272
REMARK  113  A    between atoms: _272  and  _273
REMARK  114  A    between atoms: _282  and  _284
REMARK  115  A    between atoms: _284  and  _285
REMARK  116  A    between atoms: _284  and  _287
REMARK  117  A    between atoms: _287  and  _288
REMARK  118  A    between atoms: _293  and  _295
REMARK  119  A    between atoms: _295  and  _296
REMARK  120  A    between atoms: _295  and  _298
REMARK  121  A    between atoms: _298  and  _299
REMARK  122  A    between atoms: _299  and  _300
REMARK  123  A    between atoms: _300  and  _301
REMARK  124  A    between atoms: _310  and  _312
REMARK  125  A    between atoms: _312  and  _313
REMARK  126  A    between atoms: _312  and  _315
REMARK  127  A    between atoms: _315  and  _316
REMARK  128  A    between atoms: _319  and  _321
REMARK  129  A    between atoms: _321  and  _322
REMARK  130  A    between atoms: _321  and  _324
REMARK  131  A    between atoms: _324  and  _325
REMARK  132  A    between atoms: _328  and  _330
REMARK  133  A    between atoms: _330  and  _331
REMARK  134  A    between atoms: _330  and  _333
REMARK  135  A    between atoms: _333  and  _334
REMARK  136  A    between atoms: _337  and  _339
REMARK  137  A    between atoms: _339  and  _340
REMARK  138  A    between atoms: _339  and  _342
REMARK  139  A    between atoms: _342  and  _343
REMARK  140  A    between atoms: _346  and  _348
REMARK  141  A    between atoms: _348  and  _349
REMARK  142  A    between atoms: _351  and  _353
REMARK  143  A    between atoms: _353  and  _354
REMARK  144  A    between atoms: _357  and  _359
REMARK  145  A    between atoms: _359  and  _360
REMARK  146  A    between atoms: _359  and  _362
REMARK  147  A    between atoms: _362  and  _363
REMARK  148  A    between atoms: _366  and  _368
REMARK  149  A    between atoms: _368  and  _369
REMARK  150  A    between atoms: _368  and  _371
REMARK  151  A    between atoms: _371  and  _372
REMARK  152  A    between atoms: _377  and  _379
REMARK  153  A    between atoms: _379  and  _380
REMARK  154  A    between atoms: _379  and  _382
REMARK  155  A    between atoms: _382  and  _383
REMARK  156  A    between atoms: _386  and  _388
REMARK  157  A    between atoms: _388  and  _389
REMARK  158  A    between atoms: _388  and  _391
REMARK  159  A    between atoms: _394  and  _396
REMARK  160  A    between atoms: _396  and  _397
REMARK  161  A    between atoms: _396  and  _399
REMARK  162  A    between atoms: _399  and  _400
REMARK  163  A    between atoms: _400  and  _401
REMARK  164  A    between atoms: _401  and  _402
REMARK  165  A    between atoms: _402  and  _403
REMARK  166  A    between atoms: _407  and  _409
REMARK  167  A    between atoms: _409  and  _410
REMARK  168  A    between atoms: _409  and  _412
REMARK  169  A    between atoms: _412  and  _413
REMARK  170  A    between atoms: _413  and  _414
REMARK  171  A    between atoms: _416  and  _418
REMARK  172  A    between atoms: _418  and  _419
REMARK  173  A    between atoms: _418  and  _421
REMARK  174  A    between atoms: _421  and  _422
REMARK  175  A    between atoms: _425  and  _427
REMARK  176  A    between atoms: _427  and  _428
REMARK  177  A    between atoms: _430  and  _432
REMARK  178  A    between atoms: _432  and  _433
REMARK  179  A    between atoms: _435  and  _437
REMARK  180  A    between atoms: _437  and  _438
REMARK  181  A    between atoms: _437  and  _440
REMARK  182  A    between atoms: _440  and  _441
REMARK  183  A    between atoms: _444  and  _446
REMARK  184  A    between atoms: _446  and  _447
REMARK  185  A    between atoms: _449  and  _451
REMARK  186  A    between atoms: _451  and  _452
REMARK  187  A    between atoms: _454  and  _456
REMARK  188  A    between atoms: _456  and  _457
REMARK  189  A    between atoms: _456  and  _459
REMARK  190  A    between atoms: _459  and  _460
REMARK  191  A    between atoms: _466  and  _468
REMARK  192  A    between atoms: _468  and  _469
REMARK  193  A    between atoms: _468  and  _471
REMARK  194  A    between atoms: _471  and  _472
REMARK  195  A    between atoms: _475  and  _477
REMARK  196  A    between atoms: _477  and  _478
REMARK  197  A    between atoms: _477  and  _480
REMARK  198  A    between atoms: _483  and  _485
REMARK  199  A    between atoms: _485  and  _486
REMARK  200  A    between atoms: _485  and  _488
REMARK  201  A    between atoms: _488  and  _489
REMARK  202  A    between atoms: _492  and  _494
REMARK  203  A    between atoms: _494  and  _495
REMARK  204  A    between atoms: _494  and  _497
REMARK  205  A    between atoms: _497  and  _498
REMARK  206  A    between atoms: _502  and  _503
REMARK  207  A    between atoms: _508  and  _510
REMARK  208  A    between atoms: _510  and  _511
REMARK  209  A    between atoms: _510  and  _513
REMARK  210  A    between atoms: _516  and  _518
REMARK  211  A    between atoms: _518  and  _519
REMARK  212  A    between atoms: _518  and  _521
REMARK  213  A    between atoms: _521  and  _522
REMARK  214  A    between atoms: _527  and  _529
REMARK  215  A    between atoms: _529  and  _530
REMARK  216  A    between atoms: _529  and  _532
REMARK  217  A    between atoms: _532  and  _533
REMARK  218  A    between atoms: _536  and  _538
REMARK  219  A    between atoms: _538  and  _539
REMARK  220  A    between atoms: _541  and  _543
REMARK  221  A    between atoms: _543  and  _544
REMARK  222  A    between atoms: _543  and  _546
REMARK  223  A    between atoms: _546  and  _547
REMARK  224  A    between atoms: _547  and  _548
REMARK  225  A    between atoms: _548  and  _549
REMARK  226  A    between atoms: _558  and  _560
REMARK  227  A    between atoms: _560  and  _561
REMARK  228  A    between atoms: _560  and  _563
REMARK  229  A    between atoms: _563  and  _564
REMARK                            x       y       z     vdW  Elec       q    Type
REMARK                         _______ _______ _______ _____ _____    ______ ____
ROOT
ATOM      1  O   HOH     1      24.959  21.574  18.570  0.00  0.00    +0.000 OA
ENDROOT
TORSDOF 0
REMARK  Name = ../refined-set-2016/4hdb/4hdb_pocket.pdb
REMARK  229 active torsions:
REMARK  status: ('A' for Active; 'I' for Inactive)
REMARK    1  A    between atoms: _1  and  _3
REMARK    2  A    between atoms: _3  and  _4
REMARK    3  A    between atoms: _3  and  _6
REMARK    4  A    between atoms: _6  and  _7
REMARK    5  A    between atoms: _7  and  _8
REMARK    6  A    between atoms: _8  and  _9
REMARK    7  A    between atoms: _18  and  _20
REMARK    8  A    between atoms: _20  and  _21
REMARK    9  A    between atoms: _20  and  _23
REMARK   10  A    between atoms: _23  and  _24
REMARK   11  A    between atoms: _27  and  _29
REMARK   12  A    between atoms: _29  and  _30
REMARK   13  A    between atoms: _29  and  _32
REMARK   14  A    between atoms: _32  and  _33
REMARK   15  A    between atoms: _36  and  _38
REMARK   16  A    between atoms: _38  and  _39
REMARK   17  A    between atoms: _38  and  _41
REMARK   18  A    between atoms: _41  and  _42
REMARK   19  A    between atoms: _45  and  _47
REMARK   20  A    between atoms: _47  and  _48
REMARK   21  A    between atoms: _47  and  _50
REMARK   22  A    between atoms: _50  and  _51
REMARK   23  A    between atoms: _54  and  _56
REMARK   24  A    between atoms: _56  and  _57
REMARK   25  A    between atoms: _59  and  _61
REMARK   26  A    between atoms: _61  and  _62
REMARK   27  A    between atoms: _65  and  _67
REMARK   28  A    between atoms: _67  and  _68
REMARK   29  A    between atoms: _67  and  _70
REMARK   30  A    between atoms: _70  and  _71
REMARK   31  A    between atoms: _74  and  _76
REMARK   32  A    between atoms: _76  and  _77
REMARK   33  A    between atoms: _76  and  _79
REMARK   34  A    between atoms: _79  and  _80
REMARK   35  A    between atoms: _85  and  _87
REMARK   36  A    between atoms: _87  and  _88
REMARK   37  A    between atoms: _87  and  _90
REMARK   38  A    between atoms: _90  and  _91
REMARK   39  A    between atoms: _94  and  _96
REMARK   40  A    between atoms: _96  and  _97
REMARK   41  A    between atoms: _96  and  _99
REMARK   42  A    between atoms: _102  and  _104
REMARK   43  A    between atoms: _104  and  _105
REMARK   44  A    between atoms: _104  and  _107
REMARK   45  A    between atoms: _107  and  _108
REMARK   46  A    between atoms: _108  and  _109
REMARK   47  A    between atoms: _109  and  _110
REMARK   48  A    between atoms: _110  and  _111
REMARK   49  A    between atoms: _115  and  _117
REMARK   50  A    between atoms: _117  and  _118
REMARK   51  A    between atoms: _117  and  _120
REMARK   52  A    between atoms: _120  and  _121
REMARK   53  A    between atoms: _121  and  _122
REMARK   54  A    between atoms: _124  and  _126
REMARK   55  A    between atoms: _126  and  _127
REMARK   56  A    between atoms: _126  and  _129
REMARK   57  A    between atoms: _129  and  _130
REMARK   58  A    between atoms: _133  and  _135
REMARK   59  A    between atoms: _135  and  _136
REMARK   60  A    between atoms: _138  and  _140
REMARK   61  A    between atoms: _140  and  _141
REMARK   62  A    between atoms: _143  and  _145
REMARK   63  A    between atoms: _145  and  _146
REMARK   64  A    between atoms: _145  and  _148
REMARK   65  A    between atoms: _148  and  _149
REMARK   66  A    between atoms: _152  and  _154
REMARK   67  A    between atoms: _154  and  _155
REMARK   68  A    between atoms: _157  and  _159
REMARK   69  A    between atoms: _159  and  _160
REMARK   70  A    between atoms: _162  and  _164
REMARK   71  A    between atoms: _164  and  _165
REMARK   72  A    between atoms: _164  and  _167
REMARK   73  A    between atoms: _167  and  _168
REMARK   74  A    between atoms: _174  and  _176
REMARK   75  A    between atoms: _176  and  _177
REMARK   76  A    between atoms: _176  and  _179
REMARK   77  A    between atoms: _179  and  _180
REMARK   78  A    between atoms: _183  and  _185
REMARK   79  A    between atoms: _185  and  _186
REMARK   80  A    between atoms: _185  and  _188
REMARK   81  A    between atoms: _191  and  _193
REMARK   82  A    between atoms: _193  and  _194
REMARK   83  A    between atoms: _193  and  _196
REMARK   84  A    between atoms: _196  and  _197
REMARK   85  A    between atoms: _201  and  _202
REMARK   86  A    between atoms: _207  and  _209
REMARK   87  A    between atoms: _209  and  _210
REMARK   88  A    between atoms: _209  and  _212
REMARK   89  A    between atoms: _212  and  _213
REMARK   90  A    between atoms: _217  and  _218
REMARK   91  A    between atoms: _223  and  _225
REMARK   92  A    between atoms: _225  and  _226
REMARK   93  A    between atoms: _225  and  _228
REMARK   94  A    between atoms: _231  and  _233
REMARK   95  A    between atoms: _233  and  _234
REMARK   96  A    between atoms: _233  and  _236
REMARK   97  A    between atoms: _236  and  _237
REMARK   98  A    between atoms: _242  and  _244
REMARK   99  A    between atoms: _244  and  _245
REMARK  100  A    between atoms: _244  and  _247
REMARK  101  A    between atoms: _247  and  _248
REMARK  102  A    between atoms: _251  and  _253
REMARK  103  A    between atoms: _253  and  _254
REMARK  104  A    between atoms: _253  and  _256
REMARK  105  A    between atoms: _256  and  _257
REMARK  106  A    between atoms: _260  and  _262
REMARK  107  A    between atoms: _262  and  _263
REMARK  108  A    between atoms: _265  and  _267
REMARK  109  A    between atoms: _267  and  _268
REMARK  110  A    between atoms: _267  and  _270
REMARK  111  A    between atoms: _270  and  _271
REMARK  112  A    between atoms: _271  and  _272
REMARK  113  A    between atoms: _272  and  _273
REMARK  114  A    between atoms: _282  and  _284
REMARK  115  A    between atoms: _284  and  _285
REMARK  116  A    between atoms: _284  and  _287
REMARK  117  A    between atoms: _287  and  _288
REMARK  118  A    between atoms: _293  and  _295
REMARK  119  A    between atoms: _295  and  _296
REMARK  120  A    between atoms: _295  and  _298
REMARK  121  A    between atoms: _298  and  _299
REMARK  122  A    between atoms: _299  and  _300
REMARK  123  A    between atoms: _300  and  _301
REMARK  124  A    between atoms: _310  and  _312
REMARK  125  A    between atoms: _312  and  _313
REMARK  126  A    between atoms: _312  and  _315
REMARK  127  A    between atoms: _315  and  _316
REMARK  128  A    between atoms: _319  and  _321
REMARK  129  A    between atoms: _321  and  _322
REMARK  130  A    between atoms: _321  and  _324
REMARK  131  A    between atoms: _324  and  _325
REMARK  132  A    between atoms: _328  and  _330
REMARK  133  A    between atoms: _330  and  _331
REMARK  134  A    between atoms: _330  and  _333
REMARK  135  A    between atoms: _333  and  _334
REMARK  136  A    between atoms: _337  and  _339
REMARK  137  A    between atoms: _339  and  _340
REMARK  138  A    between atoms: _339  and  _342
REMARK  139  A    between atoms: _342  and  _343
REMARK  140  A    between atoms: _346  and  _348
REMARK  141  A    between atoms: _348  and  _349
REMARK  142  A    between atoms: _351  and  _353
REMARK  143  A    between atoms: _353  and  _354
REMARK  144  A    between atoms: _357  and  _359
REMARK  145  A    between atoms: _359  and  _360
REMARK  146  A    between atoms: _359  and  _362
REMARK  147  A    between atoms: _362  and  _363
REMARK  148  A    between atoms: _366  and  _368
REMARK  149  A    between atoms: _368  and  _369
REMARK  150  A    between atoms: _368  and  _371
REMARK  151  A    between atoms: _371  and  _372
REMARK  152  A    between atoms: _377  and  _379
REMARK  153  A    between atoms: _379  and  _380
REMARK  154  A    between atoms: _379  and  _382
REMARK  155  A    between atoms: _382  and  _383
REMARK  156  A    between atoms: _386  and  _388
REMARK  157  A    between atoms: _388  and  _389
REMARK  158  A    between atoms: _388  and  _391
REMARK  159  A    between atoms: _394  and  _396
REMARK  160  A    between atoms: _396  and  _397
REMARK  161  A    between atoms: _396  and  _399
REMARK  162  A    between atoms: _399  and  _400
REMARK  163  A    between atoms: _400  and  _401
REMARK  164  A    between atoms: _401  and  _402
REMARK  165  A    between atoms: _402  and  _403
REMARK  166  A    between atoms: _407  and  _409
REMARK  167  A    between atoms: _409  and  _410
REMARK  168  A    between atoms: _409  and  _412
REMARK  169  A    between atoms: _412  and  _413
REMARK  170  A    between atoms: _413  and  _414
REMARK  171  A    between atoms: _416  and  _418
REMARK  172  A    between atoms: _418  and  _419
REMARK  173  A    between atoms: _418  and  _421
REMARK  174  A    between atoms: _421  and  _422
REMARK  175  A    between atoms: _425  and  _427
REMARK  176  A    between atoms: _427  and  _428
REMARK  177  A    between atoms: _430  and  _432
REMARK  178  A    between atoms: _432  and  _433
REMARK  179  A    between atoms: _435  and  _437
REMARK  180  A    between atoms: _437  and  _438
REMARK  181  A    between atoms: _437  and  _440
REMARK  182  A    between atoms: _440  and  _441
REMARK  183  A    between atoms: _444  and  _446
REMARK  184  A    between atoms: _446  and  _447
REMARK  185  A    between atoms: _449  and  _451
REMARK  186  A    between atoms: _451  and  _452
REMARK  187  A    between atoms: _454  and  _456
REMARK  188  A    between atoms: _456  and  _457
REMARK  189  A    between atoms: _456  and  _459
REMARK  190  A    between atoms: _459  and  _460
REMARK  191  A    between atoms: _466  and  _468
REMARK  192  A    between atoms: _468  and  _469
REMARK  193  A    between atoms: _468  and  _471
REMARK  194  A    between atoms: _471  and  _472
REMARK  195  A    between atoms: _475  and  _477
REMARK  196  A    between atoms: _477  and  _478
REMARK  197  A    between atoms: _477  and  _480
REMARK  198  A    between atoms: _483  and  _485
REMARK  199  A    between atoms: _485  and  _486
REMARK  200  A    between atoms: _485  and  _488
REMARK  201  A    between atoms: _488  and  _489
REMARK  202  A    between atoms: _492  and  _494
REMARK  203  A    between atoms: _494  and  _495
REMARK  204  A    between atoms: _494  and  _497
REMARK  205  A    between atoms: _497  and  _498
REMARK  206  A    between atoms: _502  and  _503
REMARK  207  A    between atoms: _508  and  _510
REMARK  208  A    between atoms: _510  and  _511
REMARK  209  A    between atoms: _510  and  _513
REMARK  210  A    between atoms: _516  and  _518
REMARK  211  A    between atoms: _518  and  _519
REMARK  212  A    between atoms: _518  and  _521
REMARK  213  A    between atoms: _521  and  _522
REMARK  214  A    between atoms: _527  and  _529
REMARK  215  A    between atoms: _529  and  _530
REMARK  216  A    between atoms: _529  and  _532
REMARK  217  A    between atoms: _532  and  _533
REMARK  218  A    between atoms: _536  and  _538
REMARK  219  A    between atoms: _538  and  _539
REMARK  220  A    between atoms: _541  and  _543
REMARK  221  A    between atoms: _543  and  _544
REMARK  222  A    between atoms: _543  and  _546
REMARK  223  A    between atoms: _546  and  _547
REMARK  224  A    between atoms: _547  and  _548
REMARK  225  A    between atoms: _548  and  _549
REMARK  226  A    between atoms: _558  and  _560
REMARK  227  A    between atoms: _560  and  _561
REMARK  228  A    between atoms: _560  and  _563
REMARK  229  A    between atoms: _563  and  _564
REMARK                            x       y       z     vdW  Elec       q    Type
REMARK                         _______ _______ _______ _____ _____    ______ ____
ROOT
ATOM      1  O   HOH     1      25.772  24.119  20.053  0.00  0.00    +0.000 OA
ENDROOT
TORSDOF 0
REMARK  Name = ../refined-set-2016/4hdb/4hdb_pocket.pdb
REMARK  229 active torsions:
REMARK  status: ('A' for Active; 'I' for Inactive)
REMARK    1  A    between atoms: _1  and  _3
REMARK    2  A    between atoms: _3  and  _4
REMARK    3  A    between atoms: _3  and  _6
REMARK    4  A    between atoms: _6  and  _7
REMARK    5  A    between atoms: _7  and  _8
REMARK    6  A    between atoms: _8  and  _9
REMARK    7  A    between atoms: _18  and  _20
REMARK    8  A    between atoms: _20  and  _21
REMARK    9  A    between atoms: _20  and  _23
REMARK   10  A    between atoms: _23  and  _24
REMARK   11  A    between atoms: _27  and  _29
REMARK   12  A    between atoms: _29  and  _30
REMARK   13  A    between atoms: _29  and  _32
REMARK   14  A    between atoms: _32  and  _33
REMARK   15  A    between atoms: _36  and  _38
REMARK   16  A    between atoms: _38  and  _39
REMARK   17  A    between atoms: _38  and  _41
REMARK   18  A    between atoms: _41  and  _42
REMARK   19  A    between atoms: _45  and  _47
REMARK   20  A    between atoms: _47  and  _48
REMARK   21  A    between atoms: _47  and  _50
REMARK   22  A    between atoms: _50  and  _51
REMARK   23  A    between atoms: _54  and  _56
REMARK   24  A    between atoms: _56  and  _57
REMARK   25  A    between atoms: _59  and  _61
REMARK   26  A    between atoms: _61  and  _62
REMARK   27  A    between atoms: _65  and  _67
REMARK   28  A    between atoms: _67  and  _68
REMARK   29  A    between atoms: _67  and  _70
REMARK   30  A    between atoms: _70  and  _71
REMARK   31  A    between atoms: _74  and  _76
REMARK   32  A    between atoms: _76  and  _77
REMARK   33  A    between atoms: _76  and  _79
REMARK   34  A    between atoms: _79  and  _80
REMARK   35  A    between atoms: _85  and  _87
REMARK   36  A    between atoms: _87  and  _88
REMARK   37  A    between atoms: _87  and  _90
REMARK   38  A    between atoms: _90  and  _91
REMARK   39  A    between atoms: _94  and  _96
REMARK   40  A    between atoms: _96  and  _97
REMARK   41  A    between atoms: _96  and  _99
REMARK   42  A    between atoms: _102  and  _104
REMARK   43  A    between atoms: _104  and  _105
REMARK   44  A    between atoms: _104  and  _107
REMARK   45  A    between atoms: _107  and  _108
REMARK   46  A    between atoms: _108  and  _109
REMARK   47  A    between atoms: _109  and  _110
REMARK   48  A    between atoms: _110  and  _111
REMARK   49  A    between atoms: _115  and  _117
REMARK   50  A    between atoms: _117  and  _118
REMARK   51  A    between atoms: _117  and  _120
REMARK   52  A    between atoms: _120  and  _121
REMARK   53  A    between atoms: _121  and  _122
REMARK   54  A    between atoms: _124  and  _126
REMARK   55  A    between atoms: _126  and  _127
REMARK   56  A    between atoms: _126  and  _129
REMARK   57  A    between atoms: _129  and  _130
REMARK   58  A    between atoms: _133  and  _135
REMARK   59  A    between atoms: _135  and  _136
REMARK   60  A    between atoms: _138  and  _140
REMARK   61  A    between atoms: _140  and  _141
REMARK   62  A    between atoms: _143  and  _145
REMARK   63  A    between atoms: _145  and  _146
REMARK   64  A    between atoms: _145  and  _148
REMARK   65  A    between atoms: _148  and  _149
REMARK   66  A    between atoms: _152  and  _154
REMARK   67  A    between atoms: _154  and  _155
REMARK   68  A    between atoms: _157  and  _159
REMARK   69  A    between atoms: _159  and  _160
REMARK   70  A    between atoms: _162  and  _164
REMARK   71  A    between atoms: _164  and  _165
REMARK   72  A    between atoms: _164  and  _167
REMARK   73  A    between atoms: _167  and  _168
REMARK   74  A    between atoms: _174  and  _176
REMARK   75  A    between atoms: _176  and  _177
REMARK   76  A    between atoms: _176  and  _179
REMARK   77  A    between atoms: _179  and  _180
REMARK   78  A    between atoms: _183  and  _185
REMARK   79  A    between atoms: _185  and  _186
REMARK   80  A    between atoms: _185  and  _188
REMARK   81  A    between atoms: _191  and  _193
REMARK   82  A    between atoms: _193  and  _194
REMARK   83  A    between atoms: _193  and  _196
REMARK   84  A    between atoms: _196  and  _197
REMARK   85  A    between atoms: _201  and  _202
REMARK   86  A    between atoms: _207  and  _209
REMARK   87  A    between atoms: _209  and  _210
REMARK   88  A    between atoms: _209  and  _212
REMARK   89  A    between atoms: _212  and  _213
REMARK   90  A    between atoms: _217  and  _218
REMARK   91  A    between atoms: _223  and  _225
REMARK   92  A    between atoms: _225  and  _226
REMARK   93  A    between atoms: _225  and  _228
REMARK   94  A    between atoms: _231  and  _233
REMARK   95  A    between atoms: _233  and  _234
REMARK   96  A    between atoms: _233  and  _236
REMARK   97  A    between atoms: _236  and  _237
REMARK   98  A    between atoms: _242  and  _244
REMARK   99  A    between atoms: _244  and  _245
REMARK  100  A    between atoms: _244  and  _247
REMARK  101  A    between atoms: _247  and  _248
REMARK  102  A    between atoms: _251  and  _253
REMARK  103  A    between atoms: _253  and  _254
REMARK  104  A    between atoms: _253  and  _256
REMARK  105  A    between atoms: _256  and  _257
REMARK  106  A    between atoms: _260  and  _262
REMARK  107  A    between atoms: _262  and  _263
REMARK  108  A    between atoms: _265  and  _267
REMARK  109  A    between atoms: _267  and  _268
REMARK  110  A    between atoms: _267  and  _270
REMARK  111  A    between atoms: _270  and  _271
REMARK  112  A    between atoms: _271  and  _272
REMARK  113  A    between atoms: _272  and  _273
REMARK  114  A    between atoms: _282  and  _284
REMARK  115  A    between atoms: _284  and  _285
REMARK  116  A    between atoms: _284  and  _287
REMARK  117  A    between atoms: _287  and  _288
REMARK  118  A    between atoms: _293  and  _295
REMARK  119  A    between atoms: _295  and  _296
REMARK  120  A    between atoms: _295  and  _298
REMARK  121  A    between atoms: _298  and  _299
REMARK  122  A    between atoms: _299  and  _300
REMARK  123  A    between atoms: _300  and  _301
REMARK  124  A    between atoms: _310  and  _312
REMARK  125  A    between atoms: _312  and  _313
REMARK  126  A    between atoms: _312  and  _315
REMARK  127  A    between atoms: _315  and  _316
REMARK  128  A    between atoms: _319  and  _321
REMARK  129  A    between atoms: _321  and  _322
REMARK  130  A    between atoms: _321  and  _324
REMARK  131  A    between atoms: _324  and  _325
REMARK  132  A    between atoms: _328  and  _330
REMARK  133  A    between atoms: _330  and  _331
REMARK  134  A    between atoms: _330  and  _333
REMARK  135  A    between atoms: _333  and  _334
REMARK  136  A    between atoms: _337  and  _339
REMARK  137  A    between atoms: _339  and  _340
REMARK  138  A    between atoms: _339  and  _342
REMARK  139  A    between atoms: _342  and  _343
REMARK  140  A    between atoms: _346  and  _348
REMARK  141  A    between atoms: _348  and  _349
REMARK  142  A    between atoms: _351  and  _353
REMARK  143  A    between atoms: _353  and  _354
REMARK  144  A    between atoms: _357  and  _359
REMARK  145  A    between atoms: _359  and  _360
REMARK  146  A    between atoms: _359  and  _362
REMARK  147  A    between atoms: _362  and  _363
REMARK  148  A    between atoms: _366  and  _368
REMARK  149  A    between atoms: _368  and  _369
REMARK  150  A    between atoms: _368  and  _371
REMARK  151  A    between atoms: _371  and  _372
REMARK  152  A    between atoms: _377  and  _379
REMARK  153  A    between atoms: _379  and  _380
REMARK  154  A    between atoms: _379  and  _382
REMARK  155  A    between atoms: _382  and  _383
REMARK  156  A    between atoms: _386  and  _388
REMARK  157  A    between atoms: _388  and  _389
REMARK  158  A    between atoms: _388  and  _391
REMARK  159  A    between atoms: _394  and  _396
REMARK  160  A    between atoms: _396  and  _397
REMARK  161  A    between atoms: _396  and  _399
REMARK  162  A    between atoms: _399  and  _400
REMARK  163  A    between atoms: _400  and  _401
REMARK  164  A    between atoms: _401  and  _402
REMARK  165  A    between atoms: _402  and  _403
REMARK  166  A    between atoms: _407  and  _409
REMARK  167  A    between atoms: _409  and  _410
REMARK  168  A    between atoms: _409  and  _412
REMARK  169  A    between atoms: _412  and  _413
REMARK  170  A    between atoms: _413  and  _414
REMARK  171  A    between atoms: _416  and  _418
REMARK  172  A    between atoms: _418  and  _419
REMARK  173  A    between atoms: _418  and  _421
REMARK  174  A    between atoms: _421  and  _422
REMARK  175  A    between atoms: _425  and  _427
REMARK  176  A    between atoms: _427  and  _428
REMARK  177  A    between atoms: _430  and  _432
REMARK  178  A    between atoms: _432  and  _433
REMARK  179  A    between atoms: _435  and  _437
REMARK  180  A    between atoms: _437  and  _438
REMARK  181  A    between atoms: _437  and  _440
REMARK  182  A    between atoms: _440  and  _441
REMARK  183  A    between atoms: _444  and  _446
REMARK  184  A    between atoms: _446  and  _447
REMARK  185  A    between atoms: _449  and  _451
REMARK  186  A    between atoms: _451  and  _452
REMARK  187  A    between atoms: _454  and  _456
REMARK  188  A    between atoms: _456  and  _457
REMARK  189  A    between atoms: _456  and  _459
REMARK  190  A    between atoms: _459  and  _460
REMARK  191  A    between atoms: _466  and  _468
REMARK  192  A    between atoms: _468  and  _469
REMARK  193  A    between atoms: _468  and  _471
REMARK  194  A    between atoms: _471  and  _472
REMARK  195  A    between atoms: _475  and  _477
REMARK  196  A    between atoms: _477  and  _478
REMARK  197  A    between atoms: _477  and  _480
REMARK  198  A    between atoms: _483  and  _485
REMARK  199  A    between atoms: _485  and  _486
REMARK  200  A    between atoms: _485  and  _488
REMARK  201  A    between atoms: _488  and  _489
REMARK  202  A    between atoms: _492  and  _494
REMARK  203  A    between atoms: _494  and  _495
REMARK  204  A    between atoms: _494  and  _497
REMARK  205  A    between atoms: _497  and  _498
REMARK  206  A    between atoms: _502  and  _503
REMARK  207  A    between atoms: _508  and  _510
REMARK  208  A    between atoms: _510  and  _511
REMARK  209  A    between atoms: _510  and  _513
REMARK  210  A    between atoms: _516  and  _518
REMARK  211  A    between atoms: _518  and  _519
REMARK  212  A    between atoms: _518  and  _521
REMARK  213  A    between atoms: _521  and  _522
REMARK  214  A    between atoms: _527  and  _529
REMARK  215  A    between atoms: _529  and  _530
REMARK  216  A    between atoms: _529  and  _532
REMARK  217  A    between atoms: _532  and  _533
REMARK  218  A    between atoms: _536  and  _538
REMARK  219  A    between atoms: _538  and  _539
REMARK  220  A    between atoms: _541  and  _543
REMARK  221  A    between atoms: _543  and  _544
REMARK  222  A    between atoms: _543  and  _546
REMARK  223  A    between atoms: _546  and  _547
REMARK  224  A    between atoms: _547  and  _548
REMARK  225  A    between atoms: _548  and  _549
REMARK  226  A    between atoms: _558  and  _560
REMARK  227  A    between atoms: _560  and  _561
REMARK  228  A    between atoms: _560  and  _563
REMARK  229  A    between atoms: _563  and  _564
REMARK                            x       y       z     vdW  Elec       q    Type
REMARK                         _______ _______ _______ _____ _____    ______ ____
ROOT
ATOM      1  O   HOH     1      23.067  36.219  12.582  0.00  0.00    +0.000 OA
ENDROOT
TORSDOF 0
REMARK  Name = ../refined-set-2016/4hdb/4hdb_pocket.pdb
REMARK  229 active torsions:
REMARK  status: ('A' for Active; 'I' for Inactive)
REMARK    1  A    between atoms: _1  and  _3
REMARK    2  A    between atoms: _3  and  _4
REMARK    3  A    between atoms: _3  and  _6
REMARK    4  A    between atoms: _6  and  _7
REMARK    5  A    between atoms: _7  and  _8
REMARK    6  A    between atoms: _8  and  _9
REMARK    7  A    between atoms: _18  and  _20
REMARK    8  A    between atoms: _20  and  _21
REMARK    9  A    between atoms: _20  and  _23
REMARK   10  A    between atoms: _23  and  _24
REMARK   11  A    between atoms: _27  and  _29
REMARK   12  A    between atoms: _29  and  _30
REMARK   13  A    between atoms: _29  and  _32
REMARK   14  A    between atoms: _32  and  _33
REMARK   15  A    between atoms: _36  and  _38
REMARK   16  A    between atoms: _38  and  _39
REMARK   17  A    between atoms: _38  and  _41
REMARK   18  A    between atoms: _41  and  _42
REMARK   19  A    between atoms: _45  and  _47
REMARK   20  A    between atoms: _47  and  _48
REMARK   21  A    between atoms: _47  and  _50
REMARK   22  A    between atoms: _50  and  _51
REMARK   23  A    between atoms: _54  and  _56
REMARK   24  A    between atoms: _56  and  _57
REMARK   25  A    between atoms: _59  and  _61
REMARK   26  A    between atoms: _61  and  _62
REMARK   27  A    between atoms: _65  and  _67
REMARK   28  A    between atoms: _67  and  _68
REMARK   29  A    between atoms: _67  and  _70
REMARK   30  A    between atoms: _70  and  _71
REMARK   31  A    between atoms: _74  and  _76
REMARK   32  A    between atoms: _76  and  _77
REMARK   33  A    between atoms: _76  and  _79
REMARK   34  A    between atoms: _79  and  _80
REMARK   35  A    between atoms: _85  and  _87
REMARK   36  A    between atoms: _87  and  _88
REMARK   37  A    between atoms: _87  and  _90
REMARK   38  A    between atoms: _90  and  _91
REMARK   39  A    between atoms: _94  and  _96
REMARK   40  A    between atoms: _96  and  _97
REMARK   41  A    between atoms: _96  and  _99
REMARK   42  A    between atoms: _102  and  _104
REMARK   43  A    between atoms: _104  and  _105
REMARK   44  A    between atoms: _104  and  _107
REMARK   45  A    between atoms: _107  and  _108
REMARK   46  A    between atoms: _108  and  _109
REMARK   47  A    between atoms: _109  and  _110
REMARK   48  A    between atoms: _110  and  _111
REMARK   49  A    between atoms: _115  and  _117
REMARK   50  A    between atoms: _117  and  _118
REMARK   51  A    between atoms: _117  and  _120
REMARK   52  A    between atoms: _120  and  _121
REMARK   53  A    between atoms: _121  and  _122
REMARK   54  A    between atoms: _124  and  _126
REMARK   55  A    between atoms: _126  and  _127
REMARK   56  A    between atoms: _126  and  _129
REMARK   57  A    between atoms: _129  and  _130
REMARK   58  A    between atoms: _133  and  _135
REMARK   59  A    between atoms: _135  and  _136
REMARK   60  A    between atoms: _138  and  _140
REMARK   61  A    between atoms: _140  and  _141
REMARK   62  A    between atoms: _143  and  _145
REMARK   63  A    between atoms: _145  and  _146
REMARK   64  A    between atoms: _145  and  _148
REMARK   65  A    between atoms: _148  and  _149
REMARK   66  A    between atoms: _152  and  _154
REMARK   67  A    between atoms: _154  and  _155
REMARK   68  A    between atoms: _157  and  _159
REMARK   69  A    between atoms: _159  and  _160
REMARK   70  A    between atoms: _162  and  _164
REMARK   71  A    between atoms: _164  and  _165
REMARK   72  A    between atoms: _164  and  _167
REMARK   73  A    between atoms: _167  and  _168
REMARK   74  A    between atoms: _174  and  _176
REMARK   75  A    between atoms: _176  and  _177
REMARK   76  A    between atoms: _176  and  _179
REMARK   77  A    between atoms: _179  and  _180
REMARK   78  A    between atoms: _183  and  _185
REMARK   79  A    between atoms: _185  and  _186
REMARK   80  A    between atoms: _185  and  _188
REMARK   81  A    between atoms: _191  and  _193
REMARK   82  A    between atoms: _193  and  _194
REMARK   83  A    between atoms: _193  and  _196
REMARK   84  A    between atoms: _196  and  _197
REMARK   85  A    between atoms: _201  and  _202
REMARK   86  A    between atoms: _207  and  _209
REMARK   87  A    between atoms: _209  and  _210
REMARK   88  A    between atoms: _209  and  _212
REMARK   89  A    between atoms: _212  and  _213
REMARK   90  A    between atoms: _217  and  _218
REMARK   91  A    between atoms: _223  and  _225
REMARK   92  A    between atoms: _225  and  _226
REMARK   93  A    between atoms: _225  and  _228
REMARK   94  A    between atoms: _231  and  _233
REMARK   95  A    between atoms: _233  and  _234
REMARK   96  A    between atoms: _233  and  _236
REMARK   97  A    between atoms: _236  and  _237
REMARK   98  A    between atoms: _242  and  _244
REMARK   99  A    between atoms: _244  and  _245
REMARK  100  A    between atoms: _244  and  _247
REMARK  101  A    between atoms: _247  and  _248
REMARK  102  A    between atoms: _251  and  _253
REMARK  103  A    between atoms: _253  and  _254
REMARK  104  A    between atoms: _253  and  _256
REMARK  105  A    between atoms: _256  and  _257
REMARK  106  A    between atoms: _260  and  _262
REMARK  107  A    between atoms: _262  and  _263
REMARK  108  A    between atoms: _265  and  _267
REMARK  109  A    between atoms: _267  and  _268
REMARK  110  A    between atoms: _267  and  _270
REMARK  111  A    between atoms: _270  and  _271
REMARK  112  A    between atoms: _271  and  _272
REMARK  113  A    between atoms: _272  and  _273
REMARK  114  A    between atoms: _282  and  _284
REMARK  115  A    between atoms: _284  and  _285
REMARK  116  A    between atoms: _284  and  _287
REMARK  117  A    between atoms: _287  and  _288
REMARK  118  A    between atoms: _293  and  _295
REMARK  119  A    between atoms: _295  and  _296
REMARK  120  A    between atoms: _295  and  _298
REMARK  121  A    between atoms: _298  and  _299
REMARK  122  A    between atoms: _299  and  _300
REMARK  123  A    between atoms: _300  and  _301
REMARK  124  A    between atoms: _310  and  _312
REMARK  125  A    between atoms: _312  and  _313
REMARK  126  A    between atoms: _312  and  _315
REMARK  127  A    between atoms: _315  and  _316
REMARK  128  A    between atoms: _319  and  _321
REMARK  129  A    between atoms: _321  and  _322
REMARK  130  A    between atoms: _321  and  _324
REMARK  131  A    between atoms: _324  and  _325
REMARK  132  A    between atoms: _328  and  _330
REMARK  133  A    between atoms: _330  and  _331
REMARK  134  A    between atoms: _330  and  _333
REMARK  135  A    between atoms: _333  and  _334
REMARK  136  A    between atoms: _337  and  _339
REMARK  137  A    between atoms: _339  and  _340
REMARK  138  A    between atoms: _339  and  _342
REMARK  139  A    between atoms: _342  and  _343
REMARK  140  A    between atoms: _346  and  _348
REMARK  141  A    between atoms: _348  and  _349
REMARK  142  A    between atoms: _351  and  _353
REMARK  143  A    between atoms: _353  and  _354
REMARK  144  A    between atoms: _357  and  _359
REMARK  145  A    between atoms: _359  and  _360
REMARK  146  A    between atoms: _359  and  _362
REMARK  147  A    between atoms: _362  and  _363
REMARK  148  A    between atoms: _366  and  _368
REMARK  149  A    between atoms: _368  and  _369
REMARK  150  A    between atoms: _368  and  _371
REMARK  151  A    between atoms: _371  and  _372
REMARK  152  A    between atoms: _377  and  _379
REMARK  153  A    between atoms: _379  and  _380
REMARK  154  A    between atoms: _379  and  _382
REMARK  155  A    between atoms: _382  and  _383
REMARK  156  A    between atoms: _386  and  _388
REMARK  157  A    between atoms: _388  and  _389
REMARK  158  A    between atoms: _388  and  _391
REMARK  159  A    between atoms: _394  and  _396
REMARK  160  A    between atoms: _396  and  _397
REMARK  161  A    between atoms: _396  and  _399
REMARK  162  A    between atoms: _399  and  _400
REMARK  163  A    between atoms: _400  and  _401
REMARK  164  A    between atoms: _401  and  _402
REMARK  165  A    between atoms: _402  and  _403
REMARK  166  A    between atoms: _407  and  _409
REMARK  167  A    between atoms: _409  and  _410
REMARK  168  A    between atoms: _409  and  _412
REMARK  169  A    between atoms: _412  and  _413
REMARK  170  A    between atoms: _413  and  _414
REMARK  171  A    between atoms: _416  and  _418
REMARK  172  A    between atoms: _418  and  _419
REMARK  173  A    between atoms: _418  and  _421
REMARK  174  A    between atoms: _421  and  _422
REMARK  175  A    between atoms: _425  and  _427
REMARK  176  A    between atoms: _427  and  _428
REMARK  177  A    between atoms: _430  and  _432
REMARK  178  A    between atoms: _432  and  _433
REMARK  179  A    between atoms: _435  and  _437
REMARK  180  A    between atoms: _437  and  _438
REMARK  181  A    between atoms: _437  and  _440
REMARK  182  A    between atoms: _440  and  _441
REMARK  183  A    between atoms: _444  and  _446
REMARK  184  A    between atoms: _446  and  _447
REMARK  185  A    between atoms: _449  and  _451
REMARK  186  A    between atoms: _451  and  _452
REMARK  187  A    between atoms: _454  and  _456
REMARK  188  A    between atoms: _456  and  _457
REMARK  189  A    between atoms: _456  and  _459
REMARK  190  A    between atoms: _459  and  _460
REMARK  191  A    between atoms: _466  and  _468
REMARK  192  A    between atoms: _468  and  _469
REMARK  193  A    between atoms: _468  and  _471
REMARK  194  A    between atoms: _471  and  _472
REMARK  195  A    between atoms: _475  and  _477
REMARK  196  A    between atoms: _477  and  _478
REMARK  197  A    between atoms: _477  and  _480
REMARK  198  A    between atoms: _483  and  _485
REMARK  199  A    between atoms: _485  and  _486
REMARK  200  A    between atoms: _485  and  _488
REMARK  201  A    between atoms: _488  and  _489
REMARK  202  A    between atoms: _492  and  _494
REMARK  203  A    between atoms: _494  and  _495
REMARK  204  A    between atoms: _494  and  _497
REMARK  205  A    between atoms: _497  and  _498
REMARK  206  A    between atoms: _502  and  _503
REMARK  207  A    between atoms: _508  and  _510
REMARK  208  A    between atoms: _510  and  _511
REMARK  209  A    between atoms: _510  and  _513
REMARK  210  A    between atoms: _516  and  _518
REMARK  211  A    between atoms: _518  and  _519
REMARK  212  A    between atoms: _518  and  _521
REMARK  213  A    between atoms: _521  and  _522
REMARK  214  A    between atoms: _527  and  _529
REMARK  215  A    between atoms: _529  and  _530
REMARK  216  A    between atoms: _529  and  _532
REMARK  217  A    between atoms: _532  and  _533
REMARK  218  A    between atoms: _536  and  _538
REMARK  219  A    between atoms: _538  and  _539
REMARK  220  A    between atoms: _541  and  _543
REMARK  221  A    between atoms: _543  and  _544
REMARK  222  A    between atoms: _543  and  _546
REMARK  223  A    between atoms: _546  and  _547
REMARK  224  A    between atoms: _547  and  _548
REMARK  225  A    between atoms: _548  and  _549
REMARK  226  A    between atoms: _558  and  _560
REMARK  227  A    between atoms: _560  and  _561
REMARK  228  A    between atoms: _560  and  _563
REMARK  229  A    between atoms: _563  and  _564
REMARK                            x       y       z     vdW  Elec       q    Type
REMARK                         _______ _______ _______ _____ _____    ______ ____
ROOT
ATOM      1  O   HOH     1      24.464  26.118  21.986  0.00  0.00    +0.000 OA
ENDROOT
TORSDOF 0
REMARK  Name = ../refined-set-2016/4hdb/4hdb_pocket.pdb
REMARK  229 active torsions:
REMARK  status: ('A' for Active; 'I' for Inactive)
REMARK    1  A    between atoms: _1  and  _3
REMARK    2  A    between atoms: _3  and  _4
REMARK    3  A    between atoms: _3  and  _6
REMARK    4  A    between atoms: _6  and  _7
REMARK    5  A    between atoms: _7  and  _8
REMARK    6  A    between atoms: _8  and  _9
REMARK    7  A    between atoms: _18  and  _20
REMARK    8  A    between atoms: _20  and  _21
REMARK    9  A    between atoms: _20  and  _23
REMARK   10  A    between atoms: _23  and  _24
REMARK   11  A    between atoms: _27  and  _29
REMARK   12  A    between atoms: _29  and  _30
REMARK   13  A    between atoms: _29  and  _32
REMARK   14  A    between atoms: _32  and  _33
REMARK   15  A    between atoms: _36  and  _38
REMARK   16  A    between atoms: _38  and  _39
REMARK   17  A    between atoms: _38  and  _41
REMARK   18  A    between atoms: _41  and  _42
REMARK   19  A    between atoms: _45  and  _47
REMARK   20  A    between atoms: _47  and  _48
REMARK   21  A    between atoms: _47  and  _50
REMARK   22  A    between atoms: _50  and  _51
REMARK   23  A    between atoms: _54  and  _56
REMARK   24  A    between atoms: _56  and  _57
REMARK   25  A    between atoms: _59  and  _61
REMARK   26  A    between atoms: _61  and  _62
REMARK   27  A    between atoms: _65  and  _67
REMARK   28  A    between atoms: _67  and  _68
REMARK   29  A    between atoms: _67  and  _70
REMARK   30  A    between atoms: _70  and  _71
REMARK   31  A    between atoms: _74  and  _76
REMARK   32  A    between atoms: _76  and  _77
REMARK   33  A    between atoms: _76  and  _79
REMARK   34  A    between atoms: _79  and  _80
REMARK   35  A    between atoms: _85  and  _87
REMARK   36  A    between atoms: _87  and  _88
REMARK   37  A    between atoms: _87  and  _90
REMARK   38  A    between atoms: _90  and  _91
REMARK   39  A    between atoms: _94  and  _96
REMARK   40  A    between atoms: _96  and  _97
REMARK   41  A    between atoms: _96  and  _99
REMARK   42  A    between atoms: _102  and  _104
REMARK   43  A    between atoms: _104  and  _105
REMARK   44  A    between atoms: _104  and  _107
REMARK   45  A    between atoms: _107  and  _108
REMARK   46  A    between atoms: _108  and  _109
REMARK   47  A    between atoms: _109  and  _110
REMARK   48  A    between atoms: _110  and  _111
REMARK   49  A    between atoms: _115  and  _117
REMARK   50  A    between atoms: _117  and  _118
REMARK   51  A    between atoms: _117  and  _120
REMARK   52  A    between atoms: _120  and  _121
REMARK   53  A    between atoms: _121  and  _122
REMARK   54  A    between atoms: _124  and  _126
REMARK   55  A    between atoms: _126  and  _127
REMARK   56  A    between atoms: _126  and  _129
REMARK   57  A    between atoms: _129  and  _130
REMARK   58  A    between atoms: _133  and  _135
REMARK   59  A    between atoms: _135  and  _136
REMARK   60  A    between atoms: _138  and  _140
REMARK   61  A    between atoms: _140  and  _141
REMARK   62  A    between atoms: _143  and  _145
REMARK   63  A    between atoms: _145  and  _146
REMARK   64  A    between atoms: _145  and  _148
REMARK   65  A    between atoms: _148  and  _149
REMARK   66  A    between atoms: _152  and  _154
REMARK   67  A    between atoms: _154  and  _155
REMARK   68  A    between atoms: _157  and  _159
REMARK   69  A    between atoms: _159  and  _160
REMARK   70  A    between atoms: _162  and  _164
REMARK   71  A    between atoms: _164  and  _165
REMARK   72  A    between atoms: _164  and  _167
REMARK   73  A    between atoms: _167  and  _168
REMARK   74  A    between atoms: _174  and  _176
REMARK   75  A    between atoms: _176  and  _177
REMARK   76  A    between atoms: _176  and  _179
REMARK   77  A    between atoms: _179  and  _180
REMARK   78  A    between atoms: _183  and  _185
REMARK   79  A    between atoms: _185  and  _186
REMARK   80  A    between atoms: _185  and  _188
REMARK   81  A    between atoms: _191  and  _193
REMARK   82  A    between atoms: _193  and  _194
REMARK   83  A    between atoms: _193  and  _196
REMARK   84  A    between atoms: _196  and  _197
REMARK   85  A    between atoms: _201  and  _202
REMARK   86  A    between atoms: _207  and  _209
REMARK   87  A    between atoms: _209  and  _210
REMARK   88  A    between atoms: _209  and  _212
REMARK   89  A    between atoms: _212  and  _213
REMARK   90  A    between atoms: _217  and  _218
REMARK   91  A    between atoms: _223  and  _225
REMARK   92  A    between atoms: _225  and  _226
REMARK   93  A    between atoms: _225  and  _228
REMARK   94  A    between atoms: _231  and  _233
REMARK   95  A    between atoms: _233  and  _234
REMARK   96  A    between atoms: _233  and  _236
REMARK   97  A    between atoms: _236  and  _237
REMARK   98  A    between atoms: _242  and  _244
REMARK   99  A    between atoms: _244  and  _245
REMARK  100  A    between atoms: _244  and  _247
REMARK  101  A    between atoms: _247  and  _248
REMARK  102  A    between atoms: _251  and  _253
REMARK  103  A    between atoms: _253  and  _254
REMARK  104  A    between atoms: _253  and  _256
REMARK  105  A    between atoms: _256  and  _257
REMARK  106  A    between atoms: _260  and  _262
REMARK  107  A    between atoms: _262  and  _263
REMARK  108  A    between atoms: _265  and  _267
REMARK  109  A    between atoms: _267  and  _268
REMARK  110  A    between atoms: _267  and  _270
REMARK  111  A    between atoms: _270  and  _271
REMARK  112  A    between atoms: _271  and  _272
REMARK  113  A    between atoms: _272  and  _273
REMARK  114  A    between atoms: _282  and  _284
REMARK  115  A    between atoms: _284  and  _285
REMARK  116  A    between atoms: _284  and  _287
REMARK  117  A    between atoms: _287  and  _288
REMARK  118  A    between atoms: _293  and  _295
REMARK  119  A    between atoms: _295  and  _296
REMARK  120  A    between atoms: _295  and  _298
REMARK  121  A    between atoms: _298  and  _299
REMARK  122  A    between atoms: _299  and  _300
REMARK  123  A    between atoms: _300  and  _301
REMARK  124  A    between atoms: _310  and  _312
REMARK  125  A    between atoms: _312  and  _313
REMARK  126  A    between atoms: _312  and  _315
REMARK  127  A    between atoms: _315  and  _316
REMARK  128  A    between atoms: _319  and  _321
REMARK  129  A    between atoms: _321  and  _322
REMARK  130  A    between atoms: _321  and  _324
REMARK  131  A    between atoms: _324  and  _325
REMARK  132  A    between atoms: _328  and  _330
REMARK  133  A    between atoms: _330  and  _331
REMARK  134  A    between atoms: _330  and  _333
REMARK  135  A    between atoms: _333  and  _334
REMARK  136  A    between atoms: _337  and  _339
REMARK  137  A    between atoms: _339  and  _340
REMARK  138  A    between atoms: _339  and  _342
REMARK  139  A    between atoms: _342  and  _343
REMARK  140  A    between atoms: _346  and  _348
REMARK  141  A    between atoms: _348  and  _349
REMARK  142  A    between atoms: _351  and  _353
REMARK  143  A    between atoms: _353  and  _354
REMARK  144  A    between atoms: _357  and  _359
REMARK  145  A    between atoms: _359  and  _360
REMARK  146  A    between atoms: _359  and  _362
REMARK  147  A    between atoms: _362  and  _363
REMARK  148  A    between atoms: _366  and  _368
REMARK  149  A    between atoms: _368  and  _369
REMARK  150  A    between atoms: _368  and  _371
REMARK  151  A    between atoms: _371  and  _372
REMARK  152  A    between atoms: _377  and  _379
REMARK  153  A    between atoms: _379  and  _380
REMARK  154  A    between atoms: _379  and  _382
REMARK  155  A    between atoms: _382  and  _383
REMARK  156  A    between atoms: _386  and  _388
REMARK  157  A    between atoms: _388  and  _389
REMARK  158  A    between atoms: _388  and  _391
REMARK  159  A    between atoms: _394  and  _396
REMARK  160  A    between atoms: _396  and  _397
REMARK  161  A    between atoms: _396  and  _399
REMARK  162  A    between atoms: _399  and  _400
REMARK  163  A    between atoms: _400  and  _401
REMARK  164  A    between atoms: _401  and  _402
REMARK  165  A    between atoms: _402  and  _403
REMARK  166  A    between atoms: _407  and  _409
REMARK  167  A    between atoms: _409  and  _410
REMARK  168  A    between atoms: _409  and  _412
REMARK  169  A    between atoms: _412  and  _413
REMARK  170  A    between atoms: _413  and  _414
REMARK  171  A    between atoms: _416  and  _418
REMARK  172  A    between atoms: _418  and  _419
REMARK  173  A    between atoms: _418  and  _421
REMARK  174  A    between atoms: _421  and  _422
REMARK  175  A    between atoms: _425  and  _427
REMARK  176  A    between atoms: _427  and  _428
REMARK  177  A    between atoms: _430  and  _432
REMARK  178  A    between atoms: _432  and  _433
REMARK  179  A    between atoms: _435  and  _437
REMARK  180  A    between atoms: _437  and  _438
REMARK  181  A    between atoms: _437  and  _440
REMARK  182  A    between atoms: _440  and  _441
REMARK  183  A    between atoms: _444  and  _446
REMARK  184  A    between atoms: _446  and  _447
REMARK  185  A    between atoms: _449  and  _451
REMARK  186  A    between atoms: _451  and  _452
REMARK  187  A    between atoms: _454  and  _456
REMARK  188  A    between atoms: _456  and  _457
REMARK  189  A    between atoms: _456  and  _459
REMARK  190  A    between atoms: _459  and  _460
REMARK  191  A    between atoms: _466  and  _468
REMARK  192  A    between atoms: _468  and  _469
REMARK  193  A    between atoms: _468  and  _471
REMARK  194  A    between atoms: _471  and  _472
REMARK  195  A    between atoms: _475  and  _477
REMARK  196  A    between atoms: _477  and  _478
REMARK  197  A    between atoms: _477  and  _480
REMARK  198  A    between atoms: _483  and  _485
REMARK  199  A    between atoms: _485  and  _486
REMARK  200  A    between atoms: _485  and  _488
REMARK  201  A    between atoms: _488  and  _489
REMARK  202  A    between atoms: _492  and  _494
REMARK  203  A    between atoms: _494  and  _495
REMARK  204  A    between atoms: _494  and  _497
REMARK  205  A    between atoms: _497  and  _498
REMARK  206  A    between atoms: _502  and  _503
REMARK  207  A    between atoms: _508  and  _510
REMARK  208  A    between atoms: _510  and  _511
REMARK  209  A    between atoms: _510  and  _513
REMARK  210  A    between atoms: _516  and  _518
REMARK  211  A    between atoms: _518  and  _519
REMARK  212  A    between atoms: _518  and  _521
REMARK  213  A    between atoms: _521  and  _522
REMARK  214  A    between atoms: _527  and  _529
REMARK  215  A    between atoms: _529  and  _530
REMARK  216  A    between atoms: _529  and  _532
REMARK  217  A    between atoms: _532  and  _533
REMARK  218  A    between atoms: _536  and  _538
REMARK  219  A    between atoms: _538  and  _539
REMARK  220  A    between atoms: _541  and  _543
REMARK  221  A    between atoms: _543  and  _544
REMARK  222  A    between atoms: _543  and  _546
REMARK  223  A    between atoms: _546  and  _547
REMARK  224  A    between atoms: _547  and  _548
REMARK  225  A    between atoms: _548  and  _549
REMARK  226  A    between atoms: _558  and  _560
REMARK  227  A    between atoms: _560  and  _561
REMARK  228  A    between atoms: _560  and  _563
REMARK  229  A    between atoms: _563  and  _564
REMARK                            x       y       z     vdW  Elec       q    Type
REMARK                         _______ _______ _______ _____ _____    ______ ____
ROOT
ATOM      1  O   HOH     1      25.472  30.397  17.271  0.00  0.00    +0.000 OA
ENDROOT
TORSDOF 0
REMARK  Name = ../refined-set-2016/4hdb/4hdb_pocket.pdb
REMARK  229 active torsions:
REMARK  status: ('A' for Active; 'I' for Inactive)
REMARK    1  A    between atoms: _1  and  _3
REMARK    2  A    between atoms: _3  and  _4
REMARK    3  A    between atoms: _3  and  _6
REMARK    4  A    between atoms: _6  and  _7
REMARK    5  A    between atoms: _7  and  _8
REMARK    6  A    between atoms: _8  and  _9
REMARK    7  A    between atoms: _18  and  _20
REMARK    8  A    between atoms: _20  and  _21
REMARK    9  A    between atoms: _20  and  _23
REMARK   10  A    between atoms: _23  and  _24
REMARK   11  A    between atoms: _27  and  _29
REMARK   12  A    between atoms: _29  and  _30
REMARK   13  A    between atoms: _29  and  _32
REMARK   14  A    between atoms: _32  and  _33
REMARK   15  A    between atoms: _36  and  _38
REMARK   16  A    between atoms: _38  and  _39
REMARK   17  A    between atoms: _38  and  _41
REMARK   18  A    between atoms: _41  and  _42
REMARK   19  A    between atoms: _45  and  _47
REMARK   20  A    between atoms: _47  and  _48
REMARK   21  A    between atoms: _47  and  _50
REMARK   22  A    between atoms: _50  and  _51
REMARK   23  A    between atoms: _54  and  _56
REMARK   24  A    between atoms: _56  and  _57
REMARK   25  A    between atoms: _59  and  _61
REMARK   26  A    between atoms: _61  and  _62
REMARK   27  A    between atoms: _65  and  _67
REMARK   28  A    between atoms: _67  and  _68
REMARK   29  A    between atoms: _67  and  _70
REMARK   30  A    between atoms: _70  and  _71
REMARK   31  A    between atoms: _74  and  _76
REMARK   32  A    between atoms: _76  and  _77
REMARK   33  A    between atoms: _76  and  _79
REMARK   34  A    between atoms: _79  and  _80
REMARK   35  A    between atoms: _85  and  _87
REMARK   36  A    between atoms: _87  and  _88
REMARK   37  A    between atoms: _87  and  _90
REMARK   38  A    between atoms: _90  and  _91
REMARK   39  A    between atoms: _94  and  _96
REMARK   40  A    between atoms: _96  and  _97
REMARK   41  A    between atoms: _96  and  _99
REMARK   42  A    between atoms: _102  and  _104
REMARK   43  A    between atoms: _104  and  _105
REMARK   44  A    between atoms: _104  and  _107
REMARK   45  A    between atoms: _107  and  _108
REMARK   46  A    between atoms: _108  and  _109
REMARK   47  A    between atoms: _109  and  _110
REMARK   48  A    between atoms: _110  and  _111
REMARK   49  A    between atoms: _115  and  _117
REMARK   50  A    between atoms: _117  and  _118
REMARK   51  A    between atoms: _117  and  _120
REMARK   52  A    between atoms: _120  and  _121
REMARK   53  A    between atoms: _121  and  _122
REMARK   54  A    between atoms: _124  and  _126
REMARK   55  A    between atoms: _126  and  _127
REMARK   56  A    between atoms: _126  and  _129
REMARK   57  A    between atoms: _129  and  _130
REMARK   58  A    between atoms: _133  and  _135
REMARK   59  A    between atoms: _135  and  _136
REMARK   60  A    between atoms: _138  and  _140
REMARK   61  A    between atoms: _140  and  _141
REMARK   62  A    between atoms: _143  and  _145
REMARK   63  A    between atoms: _145  and  _146
REMARK   64  A    between atoms: _145  and  _148
REMARK   65  A    between atoms: _148  and  _149
REMARK   66  A    between atoms: _152  and  _154
REMARK   67  A    between atoms: _154  and  _155
REMARK   68  A    between atoms: _157  and  _159
REMARK   69  A    between atoms: _159  and  _160
REMARK   70  A    between atoms: _162  and  _164
REMARK   71  A    between atoms: _164  and  _165
REMARK   72  A    between atoms: _164  and  _167
REMARK   73  A    between atoms: _167  and  _168
REMARK   74  A    between atoms: _174  and  _176
REMARK   75  A    between atoms: _176  and  _177
REMARK   76  A    between atoms: _176  and  _179
REMARK   77  A    between atoms: _179  and  _180
REMARK   78  A    between atoms: _183  and  _185
REMARK   79  A    between atoms: _185  and  _186
REMARK   80  A    between atoms: _185  and  _188
REMARK   81  A    between atoms: _191  and  _193
REMARK   82  A    between atoms: _193  and  _194
REMARK   83  A    between atoms: _193  and  _196
REMARK   84  A    between atoms: _196  and  _197
REMARK   85  A    between atoms: _201  and  _202
REMARK   86  A    between atoms: _207  and  _209
REMARK   87  A    between atoms: _209  and  _210
REMARK   88  A    between atoms: _209  and  _212
REMARK   89  A    between atoms: _212  and  _213
REMARK   90  A    between atoms: _217  and  _218
REMARK   91  A    between atoms: _223  and  _225
REMARK   92  A    between atoms: _225  and  _226
REMARK   93  A    between atoms: _225  and  _228
REMARK   94  A    between atoms: _231  and  _233
REMARK   95  A    between atoms: _233  and  _234
REMARK   96  A    between atoms: _233  and  _236
REMARK   97  A    between atoms: _236  and  _237
REMARK   98  A    between atoms: _242  and  _244
REMARK   99  A    between atoms: _244  and  _245
REMARK  100  A    between atoms: _244  and  _247
REMARK  101  A    between atoms: _247  and  _248
REMARK  102  A    between atoms: _251  and  _253
REMARK  103  A    between atoms: _253  and  _254
REMARK  104  A    between atoms: _253  and  _256
REMARK  105  A    between atoms: _256  and  _257
REMARK  106  A    between atoms: _260  and  _262
REMARK  107  A    between atoms: _262  and  _263
REMARK  108  A    between atoms: _265  and  _267
REMARK  109  A    between atoms: _267  and  _268
REMARK  110  A    between atoms: _267  and  _270
REMARK  111  A    between atoms: _270  and  _271
REMARK  112  A    between atoms: _271  and  _272
REMARK  113  A    between atoms: _272  and  _273
REMARK  114  A    between atoms: _282  and  _284
REMARK  115  A    between atoms: _284  and  _285
REMARK  116  A    between atoms: _284  and  _287
REMARK  117  A    between atoms: _287  and  _288
REMARK  118  A    between atoms: _293  and  _295
REMARK  119  A    between atoms: _295  and  _296
REMARK  120  A    between atoms: _295  and  _298
REMARK  121  A    between atoms: _298  and  _299
REMARK  122  A    between atoms: _299  and  _300
REMARK  123  A    between atoms: _300  and  _301
REMARK  124  A    between atoms: _310  and  _312
REMARK  125  A    between atoms: _312  and  _313
REMARK  126  A    between atoms: _312  and  _315
REMARK  127  A    between atoms: _315  and  _316
REMARK  128  A    between atoms: _319  and  _321
REMARK  129  A    between atoms: _321  and  _322
REMARK  130  A    between atoms: _321  and  _324
REMARK  131  A    between atoms: _324  and  _325
REMARK  132  A    between atoms: _328  and  _330
REMARK  133  A    between atoms: _330  and  _331
REMARK  134  A    between atoms: _330  and  _333
REMARK  135  A    between atoms: _333  and  _334
REMARK  136  A    between atoms: _337  and  _339
REMARK  137  A    between atoms: _339  and  _340
REMARK  138  A    between atoms: _339  and  _342
REMARK  139  A    between atoms: _342  and  _343
REMARK  140  A    between atoms: _346  and  _348
REMARK  141  A    between atoms: _348  and  _349
REMARK  142  A    between atoms: _351  and  _353
REMARK  143  A    between atoms: _353  and  _354
REMARK  144  A    between atoms: _357  and  _359
REMARK  145  A    between atoms: _359  and  _360
REMARK  146  A    between atoms: _359  and  _362
REMARK  147  A    between atoms: _362  and  _363
REMARK  148  A    between atoms: _366  and  _368
REMARK  149  A    between atoms: _368  and  _369
REMARK  150  A    between atoms: _368  and  _371
REMARK  151  A    between atoms: _371  and  _372
REMARK  152  A    between atoms: _377  and  _379
REMARK  153  A    between atoms: _379  and  _380
REMARK  154  A    between atoms: _379  and  _382
REMARK  155  A    between atoms: _382  and  _383
REMARK  156  A    between atoms: _386  and  _388
REMARK  157  A    between atoms: _388  and  _389
REMARK  158  A    between atoms: _388  and  _391
REMARK  159  A    between atoms: _394  and  _396
REMARK  160  A    between atoms: _396  and  _397
REMARK  161  A    between atoms: _396  and  _399
REMARK  162  A    between atoms: _399  and  _400
REMARK  163  A    between atoms: _400  and  _401
REMARK  164  A    between atoms: _401  and  _402
REMARK  165  A    between atoms: _402  and  _403
REMARK  166  A    between atoms: _407  and  _409
REMARK  167  A    between atoms: _409  and  _410
REMARK  168  A    between atoms: _409  and  _412
REMARK  169  A    between atoms: _412  and  _413
REMARK  170  A    between atoms: _413  and  _414
REMARK  171  A    between atoms: _416  and  _418
REMARK  172  A    between atoms: _418  and  _419
REMARK  173  A    between atoms: _418  and  _421
REMARK  174  A    between atoms: _421  and  _422
REMARK  175  A    between atoms: _425  and  _427
REMARK  176  A    between atoms: _427  and  _428
REMARK  177  A    between atoms: _430  and  _432
REMARK  178  A    between atoms: _432  and  _433
REMARK  179  A    between atoms: _435  and  _437
REMARK  180  A    between atoms: _437  and  _438
REMARK  181  A    between atoms: _437  and  _440
REMARK  182  A    between atoms: _440  and  _441
REMARK  183  A    between atoms: _444  and  _446
REMARK  184  A    between atoms: _446  and  _447
REMARK  185  A    between atoms: _449  and  _451
REMARK  186  A    between atoms: _451  and  _452
REMARK  187  A    between atoms: _454  and  _456
REMARK  188  A    between atoms: _456  and  _457
REMARK  189  A    between atoms: _456  and  _459
REMARK  190  A    between atoms: _459  and  _460
REMARK  191  A    between atoms: _466  and  _468
REMARK  192  A    between atoms: _468  and  _469
REMARK  193  A    between atoms: _468  and  _471
REMARK  194  A    between atoms: _471  and  _472
REMARK  195  A    between atoms: _475  and  _477
REMARK  196  A    between atoms: _477  and  _478
REMARK  197  A    between atoms: _477  and  _480
REMARK  198  A    between atoms: _483  and  _485
REMARK  199  A    between atoms: _485  and  _486
REMARK  200  A    between atoms: _485  and  _488
REMARK  201  A    between atoms: _488  and  _489
REMARK  202  A    between atoms: _492  and  _494
REMARK  203  A    between atoms: _494  and  _495
REMARK  204  A    between atoms: _494  and  _497
REMARK  205  A    between atoms: _497  and  _498
REMARK  206  A    between atoms: _502  and  _503
REMARK  207  A    between atoms: _508  and  _510
REMARK  208  A    between atoms: _510  and  _511
REMARK  209  A    between atoms: _510  and  _513
REMARK  210  A    between atoms: _516  and  _518
REMARK  211  A    between atoms: _518  and  _519
REMARK  212  A    between atoms: _518  and  _521
REMARK  213  A    between atoms: _521  and  _522
REMARK  214  A    between atoms: _527  and  _529
REMARK  215  A    between atoms: _529  and  _530
REMARK  216  A    between atoms: _529  and  _532
REMARK  217  A    between atoms: _532  and  _533
REMARK  218  A    between atoms: _536  and  _538
REMARK  219  A    between atoms: _538  and  _539
REMARK  220  A    between atoms: _541  and  _543
REMARK  221  A    between atoms: _543  and  _544
REMARK  222  A    between atoms: _543  and  _546
REMARK  223  A    between atoms: _546  and  _547
REMARK  224  A    between atoms: _547  and  _548
REMARK  225  A    between atoms: _548  and  _549
REMARK  226  A    between atoms: _558  and  _560
REMARK  227  A    between atoms: _560  and  _561
REMARK  228  A    between atoms: _560  and  _563
REMARK  229  A    between atoms: _563  and  _564
REMARK                            x       y       z     vdW  Elec       q    Type
REMARK                         _______ _______ _______ _____ _____    ______ ____
ROOT
ATOM      1  O   HOH     1      20.627  28.063  18.334  0.00  0.00    +0.000 OA
ENDROOT
TORSDOF 0
REMARK  Name = ../refined-set-2016/4hdb/4hdb_pocket.pdb
REMARK  229 active torsions:
REMARK  status: ('A' for Active; 'I' for Inactive)
REMARK    1  A    between atoms: _1  and  _3
REMARK    2  A    between atoms: _3  and  _4
REMARK    3  A    between atoms: _3  and  _6
REMARK    4  A    between atoms: _6  and  _7
REMARK    5  A    between atoms: _7  and  _8
REMARK    6  A    between atoms: _8  and  _9
REMARK    7  A    between atoms: _18  and  _20
REMARK    8  A    between atoms: _20  and  _21
REMARK    9  A    between atoms: _20  and  _23
REMARK   10  A    between atoms: _23  and  _24
REMARK   11  A    between atoms: _27  and  _29
REMARK   12  A    between atoms: _29  and  _30
REMARK   13  A    between atoms: _29  and  _32
REMARK   14  A    between atoms: _32  and  _33
REMARK   15  A    between atoms: _36  and  _38
REMARK   16  A    between atoms: _38  and  _39
REMARK   17  A    between atoms: _38  and  _41
REMARK   18  A    between atoms: _41  and  _42
REMARK   19  A    between atoms: _45  and  _47
REMARK   20  A    between atoms: _47  and  _48
REMARK   21  A    between atoms: _47  and  _50
REMARK   22  A    between atoms: _50  and  _51
REMARK   23  A    between atoms: _54  and  _56
REMARK   24  A    between atoms: _56  and  _57
REMARK   25  A    between atoms: _59  and  _61
REMARK   26  A    between atoms: _61  and  _62
REMARK   27  A    between atoms: _65  and  _67
REMARK   28  A    between atoms: _67  and  _68
REMARK   29  A    between atoms: _67  and  _70
REMARK   30  A    between atoms: _70  and  _71
REMARK   31  A    between atoms: _74  and  _76
REMARK   32  A    between atoms: _76  and  _77
REMARK   33  A    between atoms: _76  and  _79
REMARK   34  A    between atoms: _79  and  _80
REMARK   35  A    between atoms: _85  and  _87
REMARK   36  A    between atoms: _87  and  _88
REMARK   37  A    between atoms: _87  and  _90
REMARK   38  A    between atoms: _90  and  _91
REMARK   39  A    between atoms: _94  and  _96
REMARK   40  A    between atoms: _96  and  _97
REMARK   41  A    between atoms: _96  and  _99
REMARK   42  A    between atoms: _102  and  _104
REMARK   43  A    between atoms: _104  and  _105
REMARK   44  A    between atoms: _104  and  _107
REMARK   45  A    between atoms: _107  and  _108
REMARK   46  A    between atoms: _108  and  _109
REMARK   47  A    between atoms: _109  and  _110
REMARK   48  A    between atoms: _110  and  _111
REMARK   49  A    between atoms: _115  and  _117
REMARK   50  A    between atoms: _117  and  _118
REMARK   51  A    between atoms: _117  and  _120
REMARK   52  A    between atoms: _120  and  _121
REMARK   53  A    between atoms: _121  and  _122
REMARK   54  A    between atoms: _124  and  _126
REMARK   55  A    between atoms: _126  and  _127
REMARK   56  A    between atoms: _126  and  _129
REMARK   57  A    between atoms: _129  and  _130
REMARK   58  A    between atoms: _133  and  _135
REMARK   59  A    between atoms: _135  and  _136
REMARK   60  A    between atoms: _138  and  _140
REMARK   61  A    between atoms: _140  and  _141
REMARK   62  A    between atoms: _143  and  _145
REMARK   63  A    between atoms: _145  and  _146
REMARK   64  A    between atoms: _145  and  _148
REMARK   65  A    between atoms: _148  and  _149
REMARK   66  A    between atoms: _152  and  _154
REMARK   67  A    between atoms: _154  and  _155
REMARK   68  A    between atoms: _157  and  _159
REMARK   69  A    between atoms: _159  and  _160
REMARK   70  A    between atoms: _162  and  _164
REMARK   71  A    between atoms: _164  and  _165
REMARK   72  A    between atoms: _164  and  _167
REMARK   73  A    between atoms: _167  and  _168
REMARK   74  A    between atoms: _174  and  _176
REMARK   75  A    between atoms: _176  and  _177
REMARK   76  A    between atoms: _176  and  _179
REMARK   77  A    between atoms: _179  and  _180
REMARK   78  A    between atoms: _183  and  _185
REMARK   79  A    between atoms: _185  and  _186
REMARK   80  A    between atoms: _185  and  _188
REMARK   81  A    between atoms: _191  and  _193
REMARK   82  A    between atoms: _193  and  _194
REMARK   83  A    between atoms: _193  and  _196
REMARK   84  A    between atoms: _196  and  _197
REMARK   85  A    between atoms: _201  and  _202
REMARK   86  A    between atoms: _207  and  _209
REMARK   87  A    between atoms: _209  and  _210
REMARK   88  A    between atoms: _209  and  _212
REMARK   89  A    between atoms: _212  and  _213
REMARK   90  A    between atoms: _217  and  _218
REMARK   91  A    between atoms: _223  and  _225
REMARK   92  A    between atoms: _225  and  _226
REMARK   93  A    between atoms: _225  and  _228
REMARK   94  A    between atoms: _231  and  _233
REMARK   95  A    between atoms: _233  and  _234
REMARK   96  A    between atoms: _233  and  _236
REMARK   97  A    between atoms: _236  and  _237
REMARK   98  A    between atoms: _242  and  _244
REMARK   99  A    between atoms: _244  and  _245
REMARK  100  A    between atoms: _244  and  _247
REMARK  101  A    between atoms: _247  and  _248
REMARK  102  A    between atoms: _251  and  _253
REMARK  103  A    between atoms: _253  and  _254
REMARK  104  A    between atoms: _253  and  _256
REMARK  105  A    between atoms: _256  and  _257
REMARK  106  A    between atoms: _260  and  _262
REMARK  107  A    between atoms: _262  and  _263
REMARK  108  A    between atoms: _265  and  _267
REMARK  109  A    between atoms: _267  and  _268
REMARK  110  A    between atoms: _267  and  _270
REMARK  111  A    between atoms: _270  and  _271
REMARK  112  A    between atoms: _271  and  _272
REMARK  113  A    between atoms: _272  and  _273
REMARK  114  A    between atoms: _282  and  _284
REMARK  115  A    between atoms: _284  and  _285
REMARK  116  A    between atoms: _284  and  _287
REMARK  117  A    between atoms: _287  and  _288
REMARK  118  A    between atoms: _293  and  _295
REMARK  119  A    between atoms: _295  and  _296
REMARK  120  A    between atoms: _295  and  _298
REMARK  121  A    between atoms: _298  and  _299
REMARK  122  A    between atoms: _299  and  _300
REMARK  123  A    between atoms: _300  and  _301
REMARK  124  A    between atoms: _310  and  _312
REMARK  125  A    between atoms: _312  and  _313
REMARK  126  A    between atoms: _312  and  _315
REMARK  127  A    between atoms: _315  and  _316
REMARK  128  A    between atoms: _319  and  _321
REMARK  129  A    between atoms: _321  and  _322
REMARK  130  A    between atoms: _321  and  _324
REMARK  131  A    between atoms: _324  and  _325
REMARK  132  A    between atoms: _328  and  _330
REMARK  133  A    between atoms: _330  and  _331
REMARK  134  A    between atoms: _330  and  _333
REMARK  135  A    between atoms: _333  and  _334
REMARK  136  A    between atoms: _337  and  _339
REMARK  137  A    between atoms: _339  and  _340
REMARK  138  A    between atoms: _339  and  _342
REMARK  139  A    between atoms: _342  and  _343
REMARK  140  A    between atoms: _346  and  _348
REMARK  141  A    between atoms: _348  and  _349
REMARK  142  A    between atoms: _351  and  _353
REMARK  143  A    between atoms: _353  and  _354
REMARK  144  A    between atoms: _357  and  _359
REMARK  145  A    between atoms: _359  and  _360
REMARK  146  A    between atoms: _359  and  _362
REMARK  147  A    between atoms: _362  and  _363
REMARK  148  A    between atoms: _366  and  _368
REMARK  149  A    between atoms: _368  and  _369
REMARK  150  A    between atoms: _368  and  _371
REMARK  151  A    between atoms: _371  and  _372
REMARK  152  A    between atoms: _377  and  _379
REMARK  153  A    between atoms: _379  and  _380
REMARK  154  A    between atoms: _379  and  _382
REMARK  155  A    between atoms: _382  and  _383
REMARK  156  A    between atoms: _386  and  _388
REMARK  157  A    between atoms: _388  and  _389
REMARK  158  A    between atoms: _388  and  _391
REMARK  159  A    between atoms: _394  and  _396
REMARK  160  A    between atoms: _396  and  _397
REMARK  161  A    between atoms: _396  and  _399
REMARK  162  A    between atoms: _399  and  _400
REMARK  163  A    between atoms: _400  and  _401
REMARK  164  A    between atoms: _401  and  _402
REMARK  165  A    between atoms: _402  and  _403
REMARK  166  A    between atoms: _407  and  _409
REMARK  167  A    between atoms: _409  and  _410
REMARK  168  A    between atoms: _409  and  _412
REMARK  169  A    between atoms: _412  and  _413
REMARK  170  A    between atoms: _413  and  _414
REMARK  171  A    between atoms: _416  and  _418
REMARK  172  A    between atoms: _418  and  _419
REMARK  173  A    between atoms: _418  and  _421
REMARK  174  A    between atoms: _421  and  _422
REMARK  175  A    between atoms: _425  and  _427
REMARK  176  A    between atoms: _427  and  _428
REMARK  177  A    between atoms: _430  and  _432
REMARK  178  A    between atoms: _432  and  _433
REMARK  179  A    between atoms: _435  and  _437
REMARK  180  A    between atoms: _437  and  _438
REMARK  181  A    between atoms: _437  and  _440
REMARK  182  A    between atoms: _440  and  _441
REMARK  183  A    between atoms: _444  and  _446
REMARK  184  A    between atoms: _446  and  _447
REMARK  185  A    between atoms: _449  and  _451
REMARK  186  A    between atoms: _451  and  _452
REMARK  187  A    between atoms: _454  and  _456
REMARK  188  A    between atoms: _456  and  _457
REMARK  189  A    between atoms: _456  and  _459
REMARK  190  A    between atoms: _459  and  _460
REMARK  191  A    between atoms: _466  and  _468
REMARK  192  A    between atoms: _468  and  _469
REMARK  193  A    between atoms: _468  and  _471
REMARK  194  A    between atoms: _471  and  _472
REMARK  195  A    between atoms: _475  and  _477
REMARK  196  A    between atoms: _477  and  _478
REMARK  197  A    between atoms: _477  and  _480
REMARK  198  A    between atoms: _483  and  _485
REMARK  199  A    between atoms: _485  and  _486
REMARK  200  A    between atoms: _485  and  _488
REMARK  201  A    between atoms: _488  and  _489
REMARK  202  A    between atoms: _492  and  _494
REMARK  203  A    between atoms: _494  and  _495
REMARK  204  A    between atoms: _494  and  _497
REMARK  205  A    between atoms: _497  and  _498
REMARK  206  A    between atoms: _502  and  _503
REMARK  207  A    between atoms: _508  and  _510
REMARK  208  A    between atoms: _510  and  _511
REMARK  209  A    between atoms: _510  and  _513
REMARK  210  A    between atoms: _516  and  _518
REMARK  211  A    between atoms: _518  and  _519
REMARK  212  A    between atoms: _518  and  _521
REMARK  213  A    between atoms: _521  and  _522
REMARK  214  A    between atoms: _527  and  _529
REMARK  215  A    between atoms: _529  and  _530
REMARK  216  A    between atoms: _529  and  _532
REMARK  217  A    between atoms: _532  and  _533
REMARK  218  A    between atoms: _536  and  _538
REMARK  219  A    between atoms: _538  and  _539
REMARK  220  A    between atoms: _541  and  _543
REMARK  221  A    between atoms: _543  and  _544
REMARK  222  A    between atoms: _543  and  _546
REMARK  223  A    between atoms: _546  and  _547
REMARK  224  A    between atoms: _547  and  _548
REMARK  225  A    between atoms: _548  and  _549
REMARK  226  A    between atoms: _558  and  _560
REMARK  227  A    between atoms: _560  and  _561
REMARK  228  A    between atoms: _560  and  _563
REMARK  229  A    between atoms: _563  and  _564
REMARK                            x       y       z     vdW  Elec       q    Type
REMARK                         _______ _______ _______ _____ _____    ______ ____
ROOT
ATOM      1  O   HOH     1      10.234  19.704  17.909  0.00  0.00    +0.000 OA
ENDROOT
TORSDOF 0
REMARK  Name = ../refined-set-2016/4hdb/4hdb_pocket.pdb
REMARK  229 active torsions:
REMARK  status: ('A' for Active; 'I' for Inactive)
REMARK    1  A    between atoms: _1  and  _3
REMARK    2  A    between atoms: _3  and  _4
REMARK    3  A    between atoms: _3  and  _6
REMARK    4  A    between atoms: _6  and  _7
REMARK    5  A    between atoms: _7  and  _8
REMARK    6  A    between atoms: _8  and  _9
REMARK    7  A    between atoms: _18  and  _20
REMARK    8  A    between atoms: _20  and  _21
REMARK    9  A    between atoms: _20  and  _23
REMARK   10  A    between atoms: _23  and  _24
REMARK   11  A    between atoms: _27  and  _29
REMARK   12  A    between atoms: _29  and  _30
REMARK   13  A    between atoms: _29  and  _32
REMARK   14  A    between atoms: _32  and  _33
REMARK   15  A    between atoms: _36  and  _38
REMARK   16  A    between atoms: _38  and  _39
REMARK   17  A    between atoms: _38  and  _41
REMARK   18  A    between atoms: _41  and  _42
REMARK   19  A    between atoms: _45  and  _47
REMARK   20  A    between atoms: _47  and  _48
REMARK   21  A    between atoms: _47  and  _50
REMARK   22  A    between atoms: _50  and  _51
REMARK   23  A    between atoms: _54  and  _56
REMARK   24  A    between atoms: _56  and  _57
REMARK   25  A    between atoms: _59  and  _61
REMARK   26  A    between atoms: _61  and  _62
REMARK   27  A    between atoms: _65  and  _67
REMARK   28  A    between atoms: _67  and  _68
REMARK   29  A    between atoms: _67  and  _70
REMARK   30  A    between atoms: _70  and  _71
REMARK   31  A    between atoms: _74  and  _76
REMARK   32  A    between atoms: _76  and  _77
REMARK   33  A    between atoms: _76  and  _79
REMARK   34  A    between atoms: _79  and  _80
REMARK   35  A    between atoms: _85  and  _87
REMARK   36  A    between atoms: _87  and  _88
REMARK   37  A    between atoms: _87  and  _90
REMARK   38  A    between atoms: _90  and  _91
REMARK   39  A    between atoms: _94  and  _96
REMARK   40  A    between atoms: _96  and  _97
REMARK   41  A    between atoms: _96  and  _99
REMARK   42  A    between atoms: _102  and  _104
REMARK   43  A    between atoms: _104  and  _105
REMARK   44  A    between atoms: _104  and  _107
REMARK   45  A    between atoms: _107  and  _108
REMARK   46  A    between atoms: _108  and  _109
REMARK   47  A    between atoms: _109  and  _110
REMARK   48  A    between atoms: _110  and  _111
REMARK   49  A    between atoms: _115  and  _117
REMARK   50  A    between atoms: _117  and  _118
REMARK   51  A    between atoms: _117  and  _120
REMARK   52  A    between atoms: _120  and  _121
REMARK   53  A    between atoms: _121  and  _122
REMARK   54  A    between atoms: _124  and  _126
REMARK   55  A    between atoms: _126  and  _127
REMARK   56  A    between atoms: _126  and  _129
REMARK   57  A    between atoms: _129  and  _130
REMARK   58  A    between atoms: _133  and  _135
REMARK   59  A    between atoms: _135  and  _136
REMARK   60  A    between atoms: _138  and  _140
REMARK   61  A    between atoms: _140  and  _141
REMARK   62  A    between atoms: _143  and  _145
REMARK   63  A    between atoms: _145  and  _146
REMARK   64  A    between atoms: _145  and  _148
REMARK   65  A    between atoms: _148  and  _149
REMARK   66  A    between atoms: _152  and  _154
REMARK   67  A    between atoms: _154  and  _155
REMARK   68  A    between atoms: _157  and  _159
REMARK   69  A    between atoms: _159  and  _160
REMARK   70  A    between atoms: _162  and  _164
REMARK   71  A    between atoms: _164  and  _165
REMARK   72  A    between atoms: _164  and  _167
REMARK   73  A    between atoms: _167  and  _168
REMARK   74  A    between atoms: _174  and  _176
REMARK   75  A    between atoms: _176  and  _177
REMARK   76  A    between atoms: _176  and  _179
REMARK   77  A    between atoms: _179  and  _180
REMARK   78  A    between atoms: _183  and  _185
REMARK   79  A    between atoms: _185  and  _186
REMARK   80  A    between atoms: _185  and  _188
REMARK   81  A    between atoms: _191  and  _193
REMARK   82  A    between atoms: _193  and  _194
REMARK   83  A    between atoms: _193  and  _196
REMARK   84  A    between atoms: _196  and  _197
REMARK   85  A    between atoms: _201  and  _202
REMARK   86  A    between atoms: _207  and  _209
REMARK   87  A    between atoms: _209  and  _210
REMARK   88  A    between atoms: _209  and  _212
REMARK   89  A    between atoms: _212  and  _213
REMARK   90  A    between atoms: _217  and  _218
REMARK   91  A    between atoms: _223  and  _225
REMARK   92  A    between atoms: _225  and  _226
REMARK   93  A    between atoms: _225  and  _228
REMARK   94  A    between atoms: _231  and  _233
REMARK   95  A    between atoms: _233  and  _234
REMARK   96  A    between atoms: _233  and  _236
REMARK   97  A    between atoms: _236  and  _237
REMARK   98  A    between atoms: _242  and  _244
REMARK   99  A    between atoms: _244  and  _245
REMARK  100  A    between atoms: _244  and  _247
REMARK  101  A    between atoms: _247  and  _248
REMARK  102  A    between atoms: _251  and  _253
REMARK  103  A    between atoms: _253  and  _254
REMARK  104  A    between atoms: _253  and  _256
REMARK  105  A    between atoms: _256  and  _257
REMARK  106  A    between atoms: _260  and  _262
REMARK  107  A    between atoms: _262  and  _263
REMARK  108  A    between atoms: _265  and  _267
REMARK  109  A    between atoms: _267  and  _268
REMARK  110  A    between atoms: _267  and  _270
REMARK  111  A    between atoms: _270  and  _271
REMARK  112  A    between atoms: _271  and  _272
REMARK  113  A    between atoms: _272  and  _273
REMARK  114  A    between atoms: _282  and  _284
REMARK  115  A    between atoms: _284  and  _285
REMARK  116  A    between atoms: _284  and  _287
REMARK  117  A    between atoms: _287  and  _288
REMARK  118  A    between atoms: _293  and  _295
REMARK  119  A    between atoms: _295  and  _296
REMARK  120  A    between atoms: _295  and  _298
REMARK  121  A    between atoms: _298  and  _299
REMARK  122  A    between atoms: _299  and  _300
REMARK  123  A    between atoms: _300  and  _301
REMARK  124  A    between atoms: _310  and  _312
REMARK  125  A    between atoms: _312  and  _313
REMARK  126  A    between atoms: _312  and  _315
REMARK  127  A    between atoms: _315  and  _316
REMARK  128  A    between atoms: _319  and  _321
REMARK  129  A    between atoms: _321  and  _322
REMARK  130  A    between atoms: _321  and  _324
REMARK  131  A    between atoms: _324  and  _325
REMARK  132  A    between atoms: _328  and  _330
REMARK  133  A    between atoms: _330  and  _331
REMARK  134  A    between atoms: _330  and  _333
REMARK  135  A    between atoms: _333  and  _334
REMARK  136  A    between atoms: _337  and  _339
REMARK  137  A    between atoms: _339  and  _340
REMARK  138  A    between atoms: _339  and  _342
REMARK  139  A    between atoms: _342  and  _343
REMARK  140  A    between atoms: _346  and  _348
REMARK  141  A    between atoms: _348  and  _349
REMARK  142  A    between atoms: _351  and  _353
REMARK  143  A    between atoms: _353  and  _354
REMARK  144  A    between atoms: _357  and  _359
REMARK  145  A    between atoms: _359  and  _360
REMARK  146  A    between atoms: _359  and  _362
REMARK  147  A    between atoms: _362  and  _363
REMARK  148  A    between atoms: _366  and  _368
REMARK  149  A    between atoms: _368  and  _369
REMARK  150  A    between atoms: _368  and  _371
REMARK  151  A    between atoms: _371  and  _372
REMARK  152  A    between atoms: _377  and  _379
REMARK  153  A    between atoms: _379  and  _380
REMARK  154  A    between atoms: _379  and  _382
REMARK  155  A    between atoms: _382  and  _383
REMARK  156  A    between atoms: _386  and  _388
REMARK  157  A    between atoms: _388  and  _389
REMARK  158  A    between atoms: _388  and  _391
REMARK  159  A    between atoms: _394  and  _396
REMARK  160  A    between atoms: _396  and  _397
REMARK  161  A    between atoms: _396  and  _399
REMARK  162  A    between atoms: _399  and  _400
REMARK  163  A    between atoms: _400  and  _401
REMARK  164  A    between atoms: _401  and  _402
REMARK  165  A    between atoms: _402  and  _403
REMARK  166  A    between atoms: _407  and  _409
REMARK  167  A    between atoms: _409  and  _410
REMARK  168  A    between atoms: _409  and  _412
REMARK  169  A    between atoms: _412  and  _413
REMARK  170  A    between atoms: _413  and  _414
REMARK  171  A    between atoms: _416  and  _418
REMARK  172  A    between atoms: _418  and  _419
REMARK  173  A    between atoms: _418  and  _421
REMARK  174  A    between atoms: _421  and  _422
REMARK  175  A    between atoms: _425  and  _427
REMARK  176  A    between atoms: _427  and  _428
REMARK  177  A    between atoms: _430  and  _432
REMARK  178  A    between atoms: _432  and  _433
REMARK  179  A    between atoms: _435  and  _437
REMARK  180  A    between atoms: _437  and  _438
REMARK  181  A    between atoms: _437  and  _440
REMARK  182  A    between atoms: _440  and  _441
REMARK  183  A    between atoms: _444  and  _446
REMARK  184  A    between atoms: _446  and  _447
REMARK  185  A    between atoms: _449  and  _451
REMARK  186  A    between atoms: _451  and  _452
REMARK  187  A    between atoms: _454  and  _456
REMARK  188  A    between atoms: _456  and  _457
REMARK  189  A    between atoms: _456  and  _459
REMARK  190  A    between atoms: _459  and  _460
REMARK  191  A    between atoms: _466  and  _468
REMARK  192  A    between atoms: _468  and  _469
REMARK  193  A    between atoms: _468  and  _471
REMARK  194  A    between atoms: _471  and  _472
REMARK  195  A    between atoms: _475  and  _477
REMARK  196  A    between atoms: _477  and  _478
REMARK  197  A    between atoms: _477  and  _480
REMARK  198  A    between atoms: _483  and  _485
REMARK  199  A    between atoms: _485  and  _486
REMARK  200  A    between atoms: _485  and  _488
REMARK  201  A    between atoms: _488  and  _489
REMARK  202  A    between atoms: _492  and  _494
REMARK  203  A    between atoms: _494  and  _495
REMARK  204  A    between atoms: _494  and  _497
REMARK  205  A    between atoms: _497  and  _498
REMARK  206  A    between atoms: _502  and  _503
REMARK  207  A    between atoms: _508  and  _510
REMARK  208  A    between atoms: _510  and  _511
REMARK  209  A    between atoms: _510  and  _513
REMARK  210  A    between atoms: _516  and  _518
REMARK  211  A    between atoms: _518  and  _519
REMARK  212  A    between atoms: _518  and  _521
REMARK  213  A    between atoms: _521  and  _522
REMARK  214  A    between atoms: _527  and  _529
REMARK  215  A    between atoms: _529  and  _530
REMARK  216  A    between atoms: _529  and  _532
REMARK  217  A    between atoms: _532  and  _533
REMARK  218  A    between atoms: _536  and  _538
REMARK  219  A    between atoms: _538  and  _539
REMARK  220  A    between atoms: _541  and  _543
REMARK  221  A    between atoms: _543  and  _544
REMARK  222  A    between atoms: _543  and  _546
REMARK  223  A    between atoms: _546  and  _547
REMARK  224  A    between atoms: _547  and  _548
REMARK  225  A    between atoms: _548  and  _549
REMARK  226  A    between atoms: _558  and  _560
REMARK  227  A    between atoms: _560  and  _561
REMARK  228  A    between atoms: _560  and  _563
REMARK  229  A    between atoms: _563  and  _564
REMARK                            x       y       z     vdW  Elec       q    Type
REMARK                         _______ _______ _______ _____ _____    ______ ____
ROOT
ATOM      1  O   HOH     1       7.456  23.790  18.151  0.00  0.00    +0.000 OA
ENDROOT
TORSDOF 0
REMARK  Name = ../refined-set-2016/4hdb/4hdb_pocket.pdb
REMARK  229 active torsions:
REMARK  status: ('A' for Active; 'I' for Inactive)
REMARK    1  A    between atoms: _1  and  _3
REMARK    2  A    between atoms: _3  and  _4
REMARK    3  A    between atoms: _3  and  _6
REMARK    4  A    between atoms: _6  and  _7
REMARK    5  A    between atoms: _7  and  _8
REMARK    6  A    between atoms: _8  and  _9
REMARK    7  A    between atoms: _18  and  _20
REMARK    8  A    between atoms: _20  and  _21
REMARK    9  A    between atoms: _20  and  _23
REMARK   10  A    between atoms: _23  and  _24
REMARK   11  A    between atoms: _27  and  _29
REMARK   12  A    between atoms: _29  and  _30
REMARK   13  A    between atoms: _29  and  _32
REMARK   14  A    between atoms: _32  and  _33
REMARK   15  A    between atoms: _36  and  _38
REMARK   16  A    between atoms: _38  and  _39
REMARK   17  A    between atoms: _38  and  _41
REMARK   18  A    between atoms: _41  and  _42
REMARK   19  A    between atoms: _45  and  _47
REMARK   20  A    between atoms: _47  and  _48
REMARK   21  A    between atoms: _47  and  _50
REMARK   22  A    between atoms: _50  and  _51
REMARK   23  A    between atoms: _54  and  _56
REMARK   24  A    between atoms: _56  and  _57
REMARK   25  A    between atoms: _59  and  _61
REMARK   26  A    between atoms: _61  and  _62
REMARK   27  A    between atoms: _65  and  _67
REMARK   28  A    between atoms: _67  and  _68
REMARK   29  A    between atoms: _67  and  _70
REMARK   30  A    between atoms: _70  and  _71
REMARK   31  A    between atoms: _74  and  _76
REMARK   32  A    between atoms: _76  and  _77
REMARK   33  A    between atoms: _76  and  _79
REMARK   34  A    between atoms: _79  and  _80
REMARK   35  A    between atoms: _85  and  _87
REMARK   36  A    between atoms: _87  and  _88
REMARK   37  A    between atoms: _87  and  _90
REMARK   38  A    between atoms: _90  and  _91
REMARK   39  A    between atoms: _94  and  _96
REMARK   40  A    between atoms: _96  and  _97
REMARK   41  A    between atoms: _96  and  _99
REMARK   42  A    between atoms: _102  and  _104
REMARK   43  A    between atoms: _104  and  _105
REMARK   44  A    between atoms: _104  and  _107
REMARK   45  A    between atoms: _107  and  _108
REMARK   46  A    between atoms: _108  and  _109
REMARK   47  A    between atoms: _109  and  _110
REMARK   48  A    between atoms: _110  and  _111
REMARK   49  A    between atoms: _115  and  _117
REMARK   50  A    between atoms: _117  and  _118
REMARK   51  A    between atoms: _117  and  _120
REMARK   52  A    between atoms: _120  and  _121
REMARK   53  A    between atoms: _121  and  _122
REMARK   54  A    between atoms: _124  and  _126
REMARK   55  A    between atoms: _126  and  _127
REMARK   56  A    between atoms: _126  and  _129
REMARK   57  A    between atoms: _129  and  _130
REMARK   58  A    between atoms: _133  and  _135
REMARK   59  A    between atoms: _135  and  _136
REMARK   60  A    between atoms: _138  and  _140
REMARK   61  A    between atoms: _140  and  _141
REMARK   62  A    between atoms: _143  and  _145
REMARK   63  A    between atoms: _145  and  _146
REMARK   64  A    between atoms: _145  and  _148
REMARK   65  A    between atoms: _148  and  _149
REMARK   66  A    between atoms: _152  and  _154
REMARK   67  A    between atoms: _154  and  _155
REMARK   68  A    between atoms: _157  and  _159
REMARK   69  A    between atoms: _159  and  _160
REMARK   70  A    between atoms: _162  and  _164
REMARK   71  A    between atoms: _164  and  _165
REMARK   72  A    between atoms: _164  and  _167
REMARK   73  A    between atoms: _167  and  _168
REMARK   74  A    between atoms: _174  and  _176
REMARK   75  A    between atoms: _176  and  _177
REMARK   76  A    between atoms: _176  and  _179
REMARK   77  A    between atoms: _179  and  _180
REMARK   78  A    between atoms: _183  and  _185
REMARK   79  A    between atoms: _185  and  _186
REMARK   80  A    between atoms: _185  and  _188
REMARK   81  A    between atoms: _191  and  _193
REMARK   82  A    between atoms: _193  and  _194
REMARK   83  A    between atoms: _193  and  _196
REMARK   84  A    between atoms: _196  and  _197
REMARK   85  A    between atoms: _201  and  _202
REMARK   86  A    between atoms: _207  and  _209
REMARK   87  A    between atoms: _209  and  _210
REMARK   88  A    between atoms: _209  and  _212
REMARK   89  A    between atoms: _212  and  _213
REMARK   90  A    between atoms: _217  and  _218
REMARK   91  A    between atoms: _223  and  _225
REMARK   92  A    between atoms: _225  and  _226
REMARK   93  A    between atoms: _225  and  _228
REMARK   94  A    between atoms: _231  and  _233
REMARK   95  A    between atoms: _233  and  _234
REMARK   96  A    between atoms: _233  and  _236
REMARK   97  A    between atoms: _236  and  _237
REMARK   98  A    between atoms: _242  and  _244
REMARK   99  A    between atoms: _244  and  _245
REMARK  100  A    between atoms: _244  and  _247
REMARK  101  A    between atoms: _247  and  _248
REMARK  102  A    between atoms: _251  and  _253
REMARK  103  A    between atoms: _253  and  _254
REMARK  104  A    between atoms: _253  and  _256
REMARK  105  A    between atoms: _256  and  _257
REMARK  106  A    between atoms: _260  and  _262
REMARK  107  A    between atoms: _262  and  _263
REMARK  108  A    between atoms: _265  and  _267
REMARK  109  A    between atoms: _267  and  _268
REMARK  110  A    between atoms: _267  and  _270
REMARK  111  A    between atoms: _270  and  _271
REMARK  112  A    between atoms: _271  and  _272
REMARK  113  A    between atoms: _272  and  _273
REMARK  114  A    between atoms: _282  and  _284
REMARK  115  A    between atoms: _284  and  _285
REMARK  116  A    between atoms: _284  and  _287
REMARK  117  A    between atoms: _287  and  _288
REMARK  118  A    between atoms: _293  and  _295
REMARK  119  A    between atoms: _295  and  _296
REMARK  120  A    between atoms: _295  and  _298
REMARK  121  A    between atoms: _298  and  _299
REMARK  122  A    between atoms: _299  and  _300
REMARK  123  A    between atoms: _300  and  _301
REMARK  124  A    between atoms: _310  and  _312
REMARK  125  A    between atoms: _312  and  _313
REMARK  126  A    between atoms: _312  and  _315
REMARK  127  A    between atoms: _315  and  _316
REMARK  128  A    between atoms: _319  and  _321
REMARK  129  A    between atoms: _321  and  _322
REMARK  130  A    between atoms: _321  and  _324
REMARK  131  A    between atoms: _324  and  _325
REMARK  132  A    between atoms: _328  and  _330
REMARK  133  A    between atoms: _330  and  _331
REMARK  134  A    between atoms: _330  and  _333
REMARK  135  A    between atoms: _333  and  _334
REMARK  136  A    between atoms: _337  and  _339
REMARK  137  A    between atoms: _339  and  _340
REMARK  138  A    between atoms: _339  and  _342
REMARK  139  A    between atoms: _342  and  _343
REMARK  140  A    between atoms: _346  and  _348
REMARK  141  A    between atoms: _348  and  _349
REMARK  142  A    between atoms: _351  and  _353
REMARK  143  A    between atoms: _353  and  _354
REMARK  144  A    between atoms: _357  and  _359
REMARK  145  A    between atoms: _359  and  _360
REMARK  146  A    between atoms: _359  and  _362
REMARK  147  A    between atoms: _362  and  _363
REMARK  148  A    between atoms: _366  and  _368
REMARK  149  A    between atoms: _368  and  _369
REMARK  150  A    between atoms: _368  and  _371
REMARK  151  A    between atoms: _371  and  _372
REMARK  152  A    between atoms: _377  and  _379
REMARK  153  A    between atoms: _379  and  _380
REMARK  154  A    between atoms: _379  and  _382
REMARK  155  A    between atoms: _382  and  _383
REMARK  156  A    between atoms: _386  and  _388
REMARK  157  A    between atoms: _388  and  _389
REMARK  158  A    between atoms: _388  and  _391
REMARK  159  A    between atoms: _394  and  _396
REMARK  160  A    between atoms: _396  and  _397
REMARK  161  A    between atoms: _396  and  _399
REMARK  162  A    between atoms: _399  and  _400
REMARK  163  A    between atoms: _400  and  _401
REMARK  164  A    between atoms: _401  and  _402
REMARK  165  A    between atoms: _402  and  _403
REMARK  166  A    between atoms: _407  and  _409
REMARK  167  A    between atoms: _409  and  _410
REMARK  168  A    between atoms: _409  and  _412
REMARK  169  A    between atoms: _412  and  _413
REMARK  170  A    between atoms: _413  and  _414
REMARK  171  A    between atoms: _416  and  _418
REMARK  172  A    between atoms: _418  and  _419
REMARK  173  A    between atoms: _418  and  _421
REMARK  174  A    between atoms: _421  and  _422
REMARK  175  A    between atoms: _425  and  _427
REMARK  176  A    between atoms: _427  and  _428
REMARK  177  A    between atoms: _430  and  _432
REMARK  178  A    between atoms: _432  and  _433
REMARK  179  A    between atoms: _435  and  _437
REMARK  180  A    between atoms: _437  and  _438
REMARK  181  A    between atoms: _437  and  _440
REMARK  182  A    between atoms: _440  and  _441
REMARK  183  A    between atoms: _444  and  _446
REMARK  184  A    between atoms: _446  and  _447
REMARK  185  A    between atoms: _449  and  _451
REMARK  186  A    between atoms: _451  and  _452
REMARK  187  A    between atoms: _454  and  _456
REMARK  188  A    between atoms: _456  and  _457
REMARK  189  A    between atoms: _456  and  _459
REMARK  190  A    between atoms: _459  and  _460
REMARK  191  A    between atoms: _466  and  _468
REMARK  192  A    between atoms: _468  and  _469
REMARK  193  A    between atoms: _468  and  _471
REMARK  194  A    between atoms: _471  and  _472
REMARK  195  A    between atoms: _475  and  _477
REMARK  196  A    between atoms: _477  and  _478
REMARK  197  A    between atoms: _477  and  _480
REMARK  198  A    between atoms: _483  and  _485
REMARK  199  A    between atoms: _485  and  _486
REMARK  200  A    between atoms: _485  and  _488
REMARK  201  A    between atoms: _488  and  _489
REMARK  202  A    between atoms: _492  and  _494
REMARK  203  A    between atoms: _494  and  _495
REMARK  204  A    between atoms: _494  and  _497
REMARK  205  A    between atoms: _497  and  _498
REMARK  206  A    between atoms: _502  and  _503
REMARK  207  A    between atoms: _508  and  _510
REMARK  208  A    between atoms: _510  and  _511
REMARK  209  A    between atoms: _510  and  _513
REMARK  210  A    between atoms: _516  and  _518
REMARK  211  A    between atoms: _518  and  _519
REMARK  212  A    between atoms: _518  and  _521
REMARK  213  A    between atoms: _521  and  _522
REMARK  214  A    between atoms: _527  and  _529
REMARK  215  A    between atoms: _529  and  _530
REMARK  216  A    between atoms: _529  and  _532
REMARK  217  A    between atoms: _532  and  _533
REMARK  218  A    between atoms: _536  and  _538
REMARK  219  A    between atoms: _538  and  _539
REMARK  220  A    between atoms: _541  and  _543
REMARK  221  A    between atoms: _543  and  _544
REMARK  222  A    between atoms: _543  and  _546
REMARK  223  A    between atoms: _546  and  _547
REMARK  224  A    between atoms: _547  and  _548
REMARK  225  A    between atoms: _548  and  _549
REMARK  226  A    between atoms: _558  and  _560
REMARK  227  A    between atoms: _560  and  _561
REMARK  228  A    between atoms: _560  and  _563
REMARK  229  A    between atoms: _563  and  _564
REMARK                            x       y       z     vdW  Elec       q    Type
REMARK                         _______ _______ _______ _____ _____    ______ ____
ROOT
ATOM      1  O   HOH     1       9.487  16.061  26.698  0.00  0.00    +0.000 OA
ENDROOT
TORSDOF 0
REMARK  Name = ../refined-set-2016/4hdb/4hdb_pocket.pdb
REMARK  229 active torsions:
REMARK  status: ('A' for Active; 'I' for Inactive)
REMARK    1  A    between atoms: _1  and  _3
REMARK    2  A    between atoms: _3  and  _4
REMARK    3  A    between atoms: _3  and  _6
REMARK    4  A    between atoms: _6  and  _7
REMARK    5  A    between atoms: _7  and  _8
REMARK    6  A    between atoms: _8  and  _9
REMARK    7  A    between atoms: _18  and  _20
REMARK    8  A    between atoms: _20  and  _21
REMARK    9  A    between atoms: _20  and  _23
REMARK   10  A    between atoms: _23  and  _24
REMARK   11  A    between atoms: _27  and  _29
REMARK   12  A    between atoms: _29  and  _30
REMARK   13  A    between atoms: _29  and  _32
REMARK   14  A    between atoms: _32  and  _33
REMARK   15  A    between atoms: _36  and  _38
REMARK   16  A    between atoms: _38  and  _39
REMARK   17  A    between atoms: _38  and  _41
REMARK   18  A    between atoms: _41  and  _42
REMARK   19  A    between atoms: _45  and  _47
REMARK   20  A    between atoms: _47  and  _48
REMARK   21  A    between atoms: _47  and  _50
REMARK   22  A    between atoms: _50  and  _51
REMARK   23  A    between atoms: _54  and  _56
REMARK   24  A    between atoms: _56  and  _57
REMARK   25  A    between atoms: _59  and  _61
REMARK   26  A    between atoms: _61  and  _62
REMARK   27  A    between atoms: _65  and  _67
REMARK   28  A    between atoms: _67  and  _68
REMARK   29  A    between atoms: _67  and  _70
REMARK   30  A    between atoms: _70  and  _71
REMARK   31  A    between atoms: _74  and  _76
REMARK   32  A    between atoms: _76  and  _77
REMARK   33  A    between atoms: _76  and  _79
REMARK   34  A    between atoms: _79  and  _80
REMARK   35  A    between atoms: _85  and  _87
REMARK   36  A    between atoms: _87  and  _88
REMARK   37  A    between atoms: _87  and  _90
REMARK   38  A    between atoms: _90  and  _91
REMARK   39  A    between atoms: _94  and  _96
REMARK   40  A    between atoms: _96  and  _97
REMARK   41  A    between atoms: _96  and  _99
REMARK   42  A    between atoms: _102  and  _104
REMARK   43  A    between atoms: _104  and  _105
REMARK   44  A    between atoms: _104  and  _107
REMARK   45  A    between atoms: _107  and  _108
REMARK   46  A    between atoms: _108  and  _109
REMARK   47  A    between atoms: _109  and  _110
REMARK   48  A    between atoms: _110  and  _111
REMARK   49  A    between atoms: _115  and  _117
REMARK   50  A    between atoms: _117  and  _118
REMARK   51  A    between atoms: _117  and  _120
REMARK   52  A    between atoms: _120  and  _121
REMARK   53  A    between atoms: _121  and  _122
REMARK   54  A    between atoms: _124  and  _126
REMARK   55  A    between atoms: _126  and  _127
REMARK   56  A    between atoms: _126  and  _129
REMARK   57  A    between atoms: _129  and  _130
REMARK   58  A    between atoms: _133  and  _135
REMARK   59  A    between atoms: _135  and  _136
REMARK   60  A    between atoms: _138  and  _140
REMARK   61  A    between atoms: _140  and  _141
REMARK   62  A    between atoms: _143  and  _145
REMARK   63  A    between atoms: _145  and  _146
REMARK   64  A    between atoms: _145  and  _148
REMARK   65  A    between atoms: _148  and  _149
REMARK   66  A    between atoms: _152  and  _154
REMARK   67  A    between atoms: _154  and  _155
REMARK   68  A    between atoms: _157  and  _159
REMARK   69  A    between atoms: _159  and  _160
REMARK   70  A    between atoms: _162  and  _164
REMARK   71  A    between atoms: _164  and  _165
REMARK   72  A    between atoms: _164  and  _167
REMARK   73  A    between atoms: _167  and  _168
REMARK   74  A    between atoms: _174  and  _176
REMARK   75  A    between atoms: _176  and  _177
REMARK   76  A    between atoms: _176  and  _179
REMARK   77  A    between atoms: _179  and  _180
REMARK   78  A    between atoms: _183  and  _185
REMARK   79  A    between atoms: _185  and  _186
REMARK   80  A    between atoms: _185  and  _188
REMARK   81  A    between atoms: _191  and  _193
REMARK   82  A    between atoms: _193  and  _194
REMARK   83  A    between atoms: _193  and  _196
REMARK   84  A    between atoms: _196  and  _197
REMARK   85  A    between atoms: _201  and  _202
REMARK   86  A    between atoms: _207  and  _209
REMARK   87  A    between atoms: _209  and  _210
REMARK   88  A    between atoms: _209  and  _212
REMARK   89  A    between atoms: _212  and  _213
REMARK   90  A    between atoms: _217  and  _218
REMARK   91  A    between atoms: _223  and  _225
REMARK   92  A    between atoms: _225  and  _226
REMARK   93  A    between atoms: _225  and  _228
REMARK   94  A    between atoms: _231  and  _233
REMARK   95  A    between atoms: _233  and  _234
REMARK   96  A    between atoms: _233  and  _236
REMARK   97  A    between atoms: _236  and  _237
REMARK   98  A    between atoms: _242  and  _244
REMARK   99  A    between atoms: _244  and  _245
REMARK  100  A    between atoms: _244  and  _247
REMARK  101  A    between atoms: _247  and  _248
REMARK  102  A    between atoms: _251  and  _253
REMARK  103  A    between atoms: _253  and  _254
REMARK  104  A    between atoms: _253  and  _256
REMARK  105  A    between atoms: _256  and  _257
REMARK  106  A    between atoms: _260  and  _262
REMARK  107  A    between atoms: _262  and  _263
REMARK  108  A    between atoms: _265  and  _267
REMARK  109  A    between atoms: _267  and  _268
REMARK  110  A    between atoms: _267  and  _270
REMARK  111  A    between atoms: _270  and  _271
REMARK  112  A    between atoms: _271  and  _272
REMARK  113  A    between atoms: _272  and  _273
REMARK  114  A    between atoms: _282  and  _284
REMARK  115  A    between atoms: _284  and  _285
REMARK  116  A    between atoms: _284  and  _287
REMARK  117  A    between atoms: _287  and  _288
REMARK  118  A    between atoms: _293  and  _295
REMARK  119  A    between atoms: _295  and  _296
REMARK  120  A    between atoms: _295  and  _298
REMARK  121  A    between atoms: _298  and  _299
REMARK  122  A    between atoms: _299  and  _300
REMARK  123  A    between atoms: _300  and  _301
REMARK  124  A    between atoms: _310  and  _312
REMARK  125  A    between atoms: _312  and  _313
REMARK  126  A    between atoms: _312  and  _315
REMARK  127  A    between atoms: _315  and  _316
REMARK  128  A    between atoms: _319  and  _321
REMARK  129  A    between atoms: _321  and  _322
REMARK  130  A    between atoms: _321  and  _324
REMARK  131  A    between atoms: _324  and  _325
REMARK  132  A    between atoms: _328  and  _330
REMARK  133  A    between atoms: _330  and  _331
REMARK  134  A    between atoms: _330  and  _333
REMARK  135  A    between atoms: _333  and  _334
REMARK  136  A    between atoms: _337  and  _339
REMARK  137  A    between atoms: _339  and  _340
REMARK  138  A    between atoms: _339  and  _342
REMARK  139  A    between atoms: _342  and  _343
REMARK  140  A    between atoms: _346  and  _348
REMARK  141  A    between atoms: _348  and  _349
REMARK  142  A    between atoms: _351  and  _353
REMARK  143  A    between atoms: _353  and  _354
REMARK  144  A    between atoms: _357  and  _359
REMARK  145  A    between atoms: _359  and  _360
REMARK  146  A    between atoms: _359  and  _362
REMARK  147  A    between atoms: _362  and  _363
REMARK  148  A    between atoms: _366  and  _368
REMARK  149  A    between atoms: _368  and  _369
REMARK  150  A    between atoms: _368  and  _371
REMARK  151  A    between atoms: _371  and  _372
REMARK  152  A    between atoms: _377  and  _379
REMARK  153  A    between atoms: _379  and  _380
REMARK  154  A    between atoms: _379  and  _382
REMARK  155  A    between atoms: _382  and  _383
REMARK  156  A    between atoms: _386  and  _388
REMARK  157  A    between atoms: _388  and  _389
REMARK  158  A    between atoms: _388  and  _391
REMARK  159  A    between atoms: _394  and  _396
REMARK  160  A    between atoms: _396  and  _397
REMARK  161  A    between atoms: _396  and  _399
REMARK  162  A    between atoms: _399  and  _400
REMARK  163  A    between atoms: _400  and  _401
REMARK  164  A    between atoms: _401  and  _402
REMARK  165  A    between atoms: _402  and  _403
REMARK  166  A    between atoms: _407  and  _409
REMARK  167  A    between atoms: _409  and  _410
REMARK  168  A    between atoms: _409  and  _412
REMARK  169  A    between atoms: _412  and  _413
REMARK  170  A    between atoms: _413  and  _414
REMARK  171  A    between atoms: _416  and  _418
REMARK  172  A    between atoms: _418  and  _419
REMARK  173  A    between atoms: _418  and  _421
REMARK  174  A    between atoms: _421  and  _422
REMARK  175  A    between atoms: _425  and  _427
REMARK  176  A    between atoms: _427  and  _428
REMARK  177  A    between atoms: _430  and  _432
REMARK  178  A    between atoms: _432  and  _433
REMARK  179  A    between atoms: _435  and  _437
REMARK  180  A    between atoms: _437  and  _438
REMARK  181  A    between atoms: _437  and  _440
REMARK  182  A    between atoms: _440  and  _441
REMARK  183  A    between atoms: _444  and  _446
REMARK  184  A    between atoms: _446  and  _447
REMARK  185  A    between atoms: _449  and  _451
REMARK  186  A    between atoms: _451  and  _452
REMARK  187  A    between atoms: _454  and  _456
REMARK  188  A    between atoms: _456  and  _457
REMARK  189  A    between atoms: _456  and  _459
REMARK  190  A    between atoms: _459  and  _460
REMARK  191  A    between atoms: _466  and  _468
REMARK  192  A    between atoms: _468  and  _469
REMARK  193  A    between atoms: _468  and  _471
REMARK  194  A    between atoms: _471  and  _472
REMARK  195  A    between atoms: _475  and  _477
REMARK  196  A    between atoms: _477  and  _478
REMARK  197  A    between atoms: _477  and  _480
REMARK  198  A    between atoms: _483  and  _485
REMARK  199  A    between atoms: _485  and  _486
REMARK  200  A    between atoms: _485  and  _488
REMARK  201  A    between atoms: _488  and  _489
REMARK  202  A    between atoms: _492  and  _494
REMARK  203  A    between atoms: _494  and  _495
REMARK  204  A    between atoms: _494  and  _497
REMARK  205  A    between atoms: _497  and  _498
REMARK  206  A    between atoms: _502  and  _503
REMARK  207  A    between atoms: _508  and  _510
REMARK  208  A    between atoms: _510  and  _511
REMARK  209  A    between atoms: _510  and  _513
REMARK  210  A    between atoms: _516  and  _518
REMARK  211  A    between atoms: _518  and  _519
REMARK  212  A    between atoms: _518  and  _521
REMARK  213  A    between atoms: _521  and  _522
REMARK  214  A    between atoms: _527  and  _529
REMARK  215  A    between atoms: _529  and  _530
REMARK  216  A    between atoms: _529  and  _532
REMARK  217  A    between atoms: _532  and  _533
REMARK  218  A    between atoms: _536  and  _538
REMARK  219  A    between atoms: _538  and  _539
REMARK  220  A    between atoms: _541  and  _543
REMARK  221  A    between atoms: _543  and  _544
REMARK  222  A    between atoms: _543  and  _546
REMARK  223  A    between atoms: _546  and  _547
REMARK  224  A    between atoms: _547  and  _548
REMARK  225  A    between atoms: _548  and  _549
REMARK  226  A    between atoms: _558  and  _560
REMARK  227  A    between atoms: _560  and  _561
REMARK  228  A    between atoms: _560  and  _563
REMARK  229  A    between atoms: _563  and  _564
REMARK                            x       y       z     vdW  Elec       q    Type
REMARK                         _______ _______ _______ _____ _____    ______ ____
ROOT
ATOM      1  O   HOH     1      11.138  14.848  16.483  0.00  0.00    +0.000 OA
ENDROOT
TORSDOF 0
REMARK  Name = ../refined-set-2016/4hdb/4hdb_pocket.pdb
REMARK  229 active torsions:
REMARK  status: ('A' for Active; 'I' for Inactive)
REMARK    1  A    between atoms: _1  and  _3
REMARK    2  A    between atoms: _3  and  _4
REMARK    3  A    between atoms: _3  and  _6
REMARK    4  A    between atoms: _6  and  _7
REMARK    5  A    between atoms: _7  and  _8
REMARK    6  A    between atoms: _8  and  _9
REMARK    7  A    between atoms: _18  and  _20
REMARK    8  A    between atoms: _20  and  _21
REMARK    9  A    between atoms: _20  and  _23
REMARK   10  A    between atoms: _23  and  _24
REMARK   11  A    between atoms: _27  and  _29
REMARK   12  A    between atoms: _29  and  _30
REMARK   13  A    between atoms: _29  and  _32
REMARK   14  A    between atoms: _32  and  _33
REMARK   15  A    between atoms: _36  and  _38
REMARK   16  A    between atoms: _38  and  _39
REMARK   17  A    between atoms: _38  and  _41
REMARK   18  A    between atoms: _41  and  _42
REMARK   19  A    between atoms: _45  and  _47
REMARK   20  A    between atoms: _47  and  _48
REMARK   21  A    between atoms: _47  and  _50
REMARK   22  A    between atoms: _50  and  _51
REMARK   23  A    between atoms: _54  and  _56
REMARK   24  A    between atoms: _56  and  _57
REMARK   25  A    between atoms: _59  and  _61
REMARK   26  A    between atoms: _61  and  _62
REMARK   27  A    between atoms: _65  and  _67
REMARK   28  A    between atoms: _67  and  _68
REMARK   29  A    between atoms: _67  and  _70
REMARK   30  A    between atoms: _70  and  _71
REMARK   31  A    between atoms: _74  and  _76
REMARK   32  A    between atoms: _76  and  _77
REMARK   33  A    between atoms: _76  and  _79
REMARK   34  A    between atoms: _79  and  _80
REMARK   35  A    between atoms: _85  and  _87
REMARK   36  A    between atoms: _87  and  _88
REMARK   37  A    between atoms: _87  and  _90
REMARK   38  A    between atoms: _90  and  _91
REMARK   39  A    between atoms: _94  and  _96
REMARK   40  A    between atoms: _96  and  _97
REMARK   41  A    between atoms: _96  and  _99
REMARK   42  A    between atoms: _102  and  _104
REMARK   43  A    between atoms: _104  and  _105
REMARK   44  A    between atoms: _104  and  _107
REMARK   45  A    between atoms: _107  and  _108
REMARK   46  A    between atoms: _108  and  _109
REMARK   47  A    between atoms: _109  and  _110
REMARK   48  A    between atoms: _110  and  _111
REMARK   49  A    between atoms: _115  and  _117
REMARK   50  A    between atoms: _117  and  _118
REMARK   51  A    between atoms: _117  and  _120
REMARK   52  A    between atoms: _120  and  _121
REMARK   53  A    between atoms: _121  and  _122
REMARK   54  A    between atoms: _124  and  _126
REMARK   55  A    between atoms: _126  and  _127
REMARK   56  A    between atoms: _126  and  _129
REMARK   57  A    between atoms: _129  and  _130
REMARK   58  A    between atoms: _133  and  _135
REMARK   59  A    between atoms: _135  and  _136
REMARK   60  A    between atoms: _138  and  _140
REMARK   61  A    between atoms: _140  and  _141
REMARK   62  A    between atoms: _143  and  _145
REMARK   63  A    between atoms: _145  and  _146
REMARK   64  A    between atoms: _145  and  _148
REMARK   65  A    between atoms: _148  and  _149
REMARK   66  A    between atoms: _152  and  _154
REMARK   67  A    between atoms: _154  and  _155
REMARK   68  A    between atoms: _157  and  _159
REMARK   69  A    between atoms: _159  and  _160
REMARK   70  A    between atoms: _162  and  _164
REMARK   71  A    between atoms: _164  and  _165
REMARK   72  A    between atoms: _164  and  _167
REMARK   73  A    between atoms: _167  and  _168
REMARK   74  A    between atoms: _174  and  _176
REMARK   75  A    between atoms: _176  and  _177
REMARK   76  A    between atoms: _176  and  _179
REMARK   77  A    between atoms: _179  and  _180
REMARK   78  A    between atoms: _183  and  _185
REMARK   79  A    between atoms: _185  and  _186
REMARK   80  A    between atoms: _185  and  _188
REMARK   81  A    between atoms: _191  and  _193
REMARK   82  A    between atoms: _193  and  _194
REMARK   83  A    between atoms: _193  and  _196
REMARK   84  A    between atoms: _196  and  _197
REMARK   85  A    between atoms: _201  and  _202
REMARK   86  A    between atoms: _207  and  _209
REMARK   87  A    between atoms: _209  and  _210
REMARK   88  A    between atoms: _209  and  _212
REMARK   89  A    between atoms: _212  and  _213
REMARK   90  A    between atoms: _217  and  _218
REMARK   91  A    between atoms: _223  and  _225
REMARK   92  A    between atoms: _225  and  _226
REMARK   93  A    between atoms: _225  and  _228
REMARK   94  A    between atoms: _231  and  _233
REMARK   95  A    between atoms: _233  and  _234
REMARK   96  A    between atoms: _233  and  _236
REMARK   97  A    between atoms: _236  and  _237
REMARK   98  A    between atoms: _242  and  _244
REMARK   99  A    between atoms: _244  and  _245
REMARK  100  A    between atoms: _244  and  _247
REMARK  101  A    between atoms: _247  and  _248
REMARK  102  A    between atoms: _251  and  _253
REMARK  103  A    between atoms: _253  and  _254
REMARK  104  A    between atoms: _253  and  _256
REMARK  105  A    between atoms: _256  and  _257
REMARK  106  A    between atoms: _260  and  _262
REMARK  107  A    between atoms: _262  and  _263
REMARK  108  A    between atoms: _265  and  _267
REMARK  109  A    between atoms: _267  and  _268
REMARK  110  A    between atoms: _267  and  _270
REMARK  111  A    between atoms: _270  and  _271
REMARK  112  A    between atoms: _271  and  _272
REMARK  113  A    between atoms: _272  and  _273
REMARK  114  A    between atoms: _282  and  _284
REMARK  115  A    between atoms: _284  and  _285
REMARK  116  A    between atoms: _284  and  _287
REMARK  117  A    between atoms: _287  and  _288
REMARK  118  A    between atoms: _293  and  _295
REMARK  119  A    between atoms: _295  and  _296
REMARK  120  A    between atoms: _295  and  _298
REMARK  121  A    between atoms: _298  and  _299
REMARK  122  A    between atoms: _299  and  _300
REMARK  123  A    between atoms: _300  and  _301
REMARK  124  A    between atoms: _310  and  _312
REMARK  125  A    between atoms: _312  and  _313
REMARK  126  A    between atoms: _312  and  _315
REMARK  127  A    between atoms: _315  and  _316
REMARK  128  A    between atoms: _319  and  _321
REMARK  129  A    between atoms: _321  and  _322
REMARK  130  A    between atoms: _321  and  _324
REMARK  131  A    between atoms: _324  and  _325
REMARK  132  A    between atoms: _328  and  _330
REMARK  133  A    between atoms: _330  and  _331
REMARK  134  A    between atoms: _330  and  _333
REMARK  135  A    between atoms: _333  and  _334
REMARK  136  A    between atoms: _337  and  _339
REMARK  137  A    between atoms: _339  and  _340
REMARK  138  A    between atoms: _339  and  _342
REMARK  139  A    between atoms: _342  and  _343
REMARK  140  A    between atoms: _346  and  _348
REMARK  141  A    between atoms: _348  and  _349
REMARK  142  A    between atoms: _351  and  _353
REMARK  143  A    between atoms: _353  and  _354
REMARK  144  A    between atoms: _357  and  _359
REMARK  145  A    between atoms: _359  and  _360
REMARK  146  A    between atoms: _359  and  _362
REMARK  147  A    between atoms: _362  and  _363
REMARK  148  A    between atoms: _366  and  _368
REMARK  149  A    between atoms: _368  and  _369
REMARK  150  A    between atoms: _368  and  _371
REMARK  151  A    between atoms: _371  and  _372
REMARK  152  A    between atoms: _377  and  _379
REMARK  153  A    between atoms: _379  and  _380
REMARK  154  A    between atoms: _379  and  _382
REMARK  155  A    between atoms: _382  and  _383
REMARK  156  A    between atoms: _386  and  _388
REMARK  157  A    between atoms: _388  and  _389
REMARK  158  A    between atoms: _388  and  _391
REMARK  159  A    between atoms: _394  and  _396
REMARK  160  A    between atoms: _396  and  _397
REMARK  161  A    between atoms: _396  and  _399
REMARK  162  A    between atoms: _399  and  _400
REMARK  163  A    between atoms: _400  and  _401
REMARK  164  A    between atoms: _401  and  _402
REMARK  165  A    between atoms: _402  and  _403
REMARK  166  A    between atoms: _407  and  _409
REMARK  167  A    between atoms: _409  and  _410
REMARK  168  A    between atoms: _409  and  _412
REMARK  169  A    between atoms: _412  and  _413
REMARK  170  A    between atoms: _413  and  _414
REMARK  171  A    between atoms: _416  and  _418
REMARK  172  A    between atoms: _418  and  _419
REMARK  173  A    between atoms: _418  and  _421
REMARK  174  A    between atoms: _421  and  _422
REMARK  175  A    between atoms: _425  and  _427
REMARK  176  A    between atoms: _427  and  _428
REMARK  177  A    between atoms: _430  and  _432
REMARK  178  A    between atoms: _432  and  _433
REMARK  179  A    between atoms: _435  and  _437
REMARK  180  A    between atoms: _437  and  _438
REMARK  181  A    between atoms: _437  and  _440
REMARK  182  A    between atoms: _440  and  _441
REMARK  183  A    between atoms: _444  and  _446
REMARK  184  A    between atoms: _446  and  _447
REMARK  185  A    between atoms: _449  and  _451
REMARK  186  A    between atoms: _451  and  _452
REMARK  187  A    between atoms: _454  and  _456
REMARK  188  A    between atoms: _456  and  _457
REMARK  189  A    between atoms: _456  and  _459
REMARK  190  A    between atoms: _459  and  _460
REMARK  191  A    between atoms: _466  and  _468
REMARK  192  A    between atoms: _468  and  _469
REMARK  193  A    between atoms: _468  and  _471
REMARK  194  A    between atoms: _471  and  _472
REMARK  195  A    between atoms: _475  and  _477
REMARK  196  A    between atoms: _477  and  _478
REMARK  197  A    between atoms: _477  and  _480
REMARK  198  A    between atoms: _483  and  _485
REMARK  199  A    between atoms: _485  and  _486
REMARK  200  A    between atoms: _485  and  _488
REMARK  201  A    between atoms: _488  and  _489
REMARK  202  A    between atoms: _492  and  _494
REMARK  203  A    between atoms: _494  and  _495
REMARK  204  A    between atoms: _494  and  _497
REMARK  205  A    between atoms: _497  and  _498
REMARK  206  A    between atoms: _502  and  _503
REMARK  207  A    between atoms: _508  and  _510
REMARK  208  A    between atoms: _510  and  _511
REMARK  209  A    between atoms: _510  and  _513
REMARK  210  A    between atoms: _516  and  _518
REMARK  211  A    between atoms: _518  and  _519
REMARK  212  A    between atoms: _518  and  _521
REMARK  213  A    between atoms: _521  and  _522
REMARK  214  A    between atoms: _527  and  _529
REMARK  215  A    between atoms: _529  and  _530
REMARK  216  A    between atoms: _529  and  _532
REMARK  217  A    between atoms: _532  and  _533
REMARK  218  A    between atoms: _536  and  _538
REMARK  219  A    between atoms: _538  and  _539
REMARK  220  A    between atoms: _541  and  _543
REMARK  221  A    between atoms: _543  and  _544
REMARK  222  A    between atoms: _543  and  _546
REMARK  223  A    between atoms: _546  and  _547
REMARK  224  A    between atoms: _547  and  _548
REMARK  225  A    between atoms: _548  and  _549
REMARK  226  A    between atoms: _558  and  _560
REMARK  227  A    between atoms: _560  and  _561
REMARK  228  A    between atoms: _560  and  _563
REMARK  229  A    between atoms: _563  and  _564
REMARK                            x       y       z     vdW  Elec       q    Type
REMARK                         _______ _______ _______ _____ _____    ______ ____
ROOT
ATOM      1  O   HOH     1      22.073  27.267  22.858  0.00  0.00    +0.000 OA
ENDROOT
TORSDOF 0
REMARK  Name = ../refined-set-2016/4hdb/4hdb_pocket.pdb
REMARK  229 active torsions:
REMARK  status: ('A' for Active; 'I' for Inactive)
REMARK    1  A    between atoms: _1  and  _3
REMARK    2  A    between atoms: _3  and  _4
REMARK    3  A    between atoms: _3  and  _6
REMARK    4  A    between atoms: _6  and  _7
REMARK    5  A    between atoms: _7  and  _8
REMARK    6  A    between atoms: _8  and  _9
REMARK    7  A    between atoms: _18  and  _20
REMARK    8  A    between atoms: _20  and  _21
REMARK    9  A    between atoms: _20  and  _23
REMARK   10  A    between atoms: _23  and  _24
REMARK   11  A    between atoms: _27  and  _29
REMARK   12  A    between atoms: _29  and  _30
REMARK   13  A    between atoms: _29  and  _32
REMARK   14  A    between atoms: _32  and  _33
REMARK   15  A    between atoms: _36  and  _38
REMARK   16  A    between atoms: _38  and  _39
REMARK   17  A    between atoms: _38  and  _41
REMARK   18  A    between atoms: _41  and  _42
REMARK   19  A    between atoms: _45  and  _47
REMARK   20  A    between atoms: _47  and  _48
REMARK   21  A    between atoms: _47  and  _50
REMARK   22  A    between atoms: _50  and  _51
REMARK   23  A    between atoms: _54  and  _56
REMARK   24  A    between atoms: _56  and  _57
REMARK   25  A    between atoms: _59  and  _61
REMARK   26  A    between atoms: _61  and  _62
REMARK   27  A    between atoms: _65  and  _67
REMARK   28  A    between atoms: _67  and  _68
REMARK   29  A    between atoms: _67  and  _70
REMARK   30  A    between atoms: _70  and  _71
REMARK   31  A    between atoms: _74  and  _76
REMARK   32  A    between atoms: _76  and  _77
REMARK   33  A    between atoms: _76  and  _79
REMARK   34  A    between atoms: _79  and  _80
REMARK   35  A    between atoms: _85  and  _87
REMARK   36  A    between atoms: _87  and  _88
REMARK   37  A    between atoms: _87  and  _90
REMARK   38  A    between atoms: _90  and  _91
REMARK   39  A    between atoms: _94  and  _96
REMARK   40  A    between atoms: _96  and  _97
REMARK   41  A    between atoms: _96  and  _99
REMARK   42  A    between atoms: _102  and  _104
REMARK   43  A    between atoms: _104  and  _105
REMARK   44  A    between atoms: _104  and  _107
REMARK   45  A    between atoms: _107  and  _108
REMARK   46  A    between atoms: _108  and  _109
REMARK   47  A    between atoms: _109  and  _110
REMARK   48  A    between atoms: _110  and  _111
REMARK   49  A    between atoms: _115  and  _117
REMARK   50  A    between atoms: _117  and  _118
REMARK   51  A    between atoms: _117  and  _120
REMARK   52  A    between atoms: _120  and  _121
REMARK   53  A    between atoms: _121  and  _122
REMARK   54  A    between atoms: _124  and  _126
REMARK   55  A    between atoms: _126  and  _127
REMARK   56  A    between atoms: _126  and  _129
REMARK   57  A    between atoms: _129  and  _130
REMARK   58  A    between atoms: _133  and  _135
REMARK   59  A    between atoms: _135  and  _136
REMARK   60  A    between atoms: _138  and  _140
REMARK   61  A    between atoms: _140  and  _141
REMARK   62  A    between atoms: _143  and  _145
REMARK   63  A    between atoms: _145  and  _146
REMARK   64  A    between atoms: _145  and  _148
REMARK   65  A    between atoms: _148  and  _149
REMARK   66  A    between atoms: _152  and  _154
REMARK   67  A    between atoms: _154  and  _155
REMARK   68  A    between atoms: _157  and  _159
REMARK   69  A    between atoms: _159  and  _160
REMARK   70  A    between atoms: _162  and  _164
REMARK   71  A    between atoms: _164  and  _165
REMARK   72  A    between atoms: _164  and  _167
REMARK   73  A    between atoms: _167  and  _168
REMARK   74  A    between atoms: _174  and  _176
REMARK   75  A    between atoms: _176  and  _177
REMARK   76  A    between atoms: _176  and  _179
REMARK   77  A    between atoms: _179  and  _180
REMARK   78  A    between atoms: _183  and  _185
REMARK   79  A    between atoms: _185  and  _186
REMARK   80  A    between atoms: _185  and  _188
REMARK   81  A    between atoms: _191  and  _193
REMARK   82  A    between atoms: _193  and  _194
REMARK   83  A    between atoms: _193  and  _196
REMARK   84  A    between atoms: _196  and  _197
REMARK   85  A    between atoms: _201  and  _202
REMARK   86  A    between atoms: _207  and  _209
REMARK   87  A    between atoms: _209  and  _210
REMARK   88  A    between atoms: _209  and  _212
REMARK   89  A    between atoms: _212  and  _213
REMARK   90  A    between atoms: _217  and  _218
REMARK   91  A    between atoms: _223  and  _225
REMARK   92  A    between atoms: _225  and  _226
REMARK   93  A    between atoms: _225  and  _228
REMARK   94  A    between atoms: _231  and  _233
REMARK   95  A    between atoms: _233  and  _234
REMARK   96  A    between atoms: _233  and  _236
REMARK   97  A    between atoms: _236  and  _237
REMARK   98  A    between atoms: _242  and  _244
REMARK   99  A    between atoms: _244  and  _245
REMARK  100  A    between atoms: _244  and  _247
REMARK  101  A    between atoms: _247  and  _248
REMARK  102  A    between atoms: _251  and  _253
REMARK  103  A    between atoms: _253  and  _254
REMARK  104  A    between atoms: _253  and  _256
REMARK  105  A    between atoms: _256  and  _257
REMARK  106  A    between atoms: _260  and  _262
REMARK  107  A    between atoms: _262  and  _263
REMARK  108  A    between atoms: _265  and  _267
REMARK  109  A    between atoms: _267  and  _268
REMARK  110  A    between atoms: _267  and  _270
REMARK  111  A    between atoms: _270  and  _271
REMARK  112  A    between atoms: _271  and  _272
REMARK  113  A    between atoms: _272  and  _273
REMARK  114  A    between atoms: _282  and  _284
REMARK  115  A    between atoms: _284  and  _285
REMARK  116  A    between atoms: _284  and  _287
REMARK  117  A    between atoms: _287  and  _288
REMARK  118  A    between atoms: _293  and  _295
REMARK  119  A    between atoms: _295  and  _296
REMARK  120  A    between atoms: _295  and  _298
REMARK  121  A    between atoms: _298  and  _299
REMARK  122  A    between atoms: _299  and  _300
REMARK  123  A    between atoms: _300  and  _301
REMARK  124  A    between atoms: _310  and  _312
REMARK  125  A    between atoms: _312  and  _313
REMARK  126  A    between atoms: _312  and  _315
REMARK  127  A    between atoms: _315  and  _316
REMARK  128  A    between atoms: _319  and  _321
REMARK  129  A    between atoms: _321  and  _322
REMARK  130  A    between atoms: _321  and  _324
REMARK  131  A    between atoms: _324  and  _325
REMARK  132  A    between atoms: _328  and  _330
REMARK  133  A    between atoms: _330  and  _331
REMARK  134  A    between atoms: _330  and  _333
REMARK  135  A    between atoms: _333  and  _334
REMARK  136  A    between atoms: _337  and  _339
REMARK  137  A    between atoms: _339  and  _340
REMARK  138  A    between atoms: _339  and  _342
REMARK  139  A    between atoms: _342  and  _343
REMARK  140  A    between atoms: _346  and  _348
REMARK  141  A    between atoms: _348  and  _349
REMARK  142  A    between atoms: _351  and  _353
REMARK  143  A    between atoms: _353  and  _354
REMARK  144  A    between atoms: _357  and  _359
REMARK  145  A    between atoms: _359  and  _360
REMARK  146  A    between atoms: _359  and  _362
REMARK  147  A    between atoms: _362  and  _363
REMARK  148  A    between atoms: _366  and  _368
REMARK  149  A    between atoms: _368  and  _369
REMARK  150  A    between atoms: _368  and  _371
REMARK  151  A    between atoms: _371  and  _372
REMARK  152  A    between atoms: _377  and  _379
REMARK  153  A    between atoms: _379  and  _380
REMARK  154  A    between atoms: _379  and  _382
REMARK  155  A    between atoms: _382  and  _383
REMARK  156  A    between atoms: _386  and  _388
REMARK  157  A    between atoms: _388  and  _389
REMARK  158  A    between atoms: _388  and  _391
REMARK  159  A    between atoms: _394  and  _396
REMARK  160  A    between atoms: _396  and  _397
REMARK  161  A    between atoms: _396  and  _399
REMARK  162  A    between atoms: _399  and  _400
REMARK  163  A    between atoms: _400  and  _401
REMARK  164  A    between atoms: _401  and  _402
REMARK  165  A    between atoms: _402  and  _403
REMARK  166  A    between atoms: _407  and  _409
REMARK  167  A    between atoms: _409  and  _410
REMARK  168  A    between atoms: _409  and  _412
REMARK  169  A    between atoms: _412  and  _413
REMARK  170  A    between atoms: _413  and  _414
REMARK  171  A    between atoms: _416  and  _418
REMARK  172  A    between atoms: _418  and  _419
REMARK  173  A    between atoms: _418  and  _421
REMARK  174  A    between atoms: _421  and  _422
REMARK  175  A    between atoms: _425  and  _427
REMARK  176  A    between atoms: _427  and  _428
REMARK  177  A    between atoms: _430  and  _432
REMARK  178  A    between atoms: _432  and  _433
REMARK  179  A    between atoms: _435  and  _437
REMARK  180  A    between atoms: _437  and  _438
REMARK  181  A    between atoms: _437  and  _440
REMARK  182  A    between atoms: _440  and  _441
REMARK  183  A    between atoms: _444  and  _446
REMARK  184  A    between atoms: _446  and  _447
REMARK  185  A    between atoms: _449  and  _451
REMARK  186  A    between atoms: _451  and  _452
REMARK  187  A    between atoms: _454  and  _456
REMARK  188  A    between atoms: _456  and  _457
REMARK  189  A    between atoms: _456  and  _459
REMARK  190  A    between atoms: _459  and  _460
REMARK  191  A    between atoms: _466  and  _468
REMARK  192  A    between atoms: _468  and  _469
REMARK  193  A    between atoms: _468  and  _471
REMARK  194  A    between atoms: _471  and  _472
REMARK  195  A    between atoms: _475  and  _477
REMARK  196  A    between atoms: _477  and  _478
REMARK  197  A    between atoms: _477  and  _480
REMARK  198  A    between atoms: _483  and  _485
REMARK  199  A    between atoms: _485  and  _486
REMARK  200  A    between atoms: _485  and  _488
REMARK  201  A    between atoms: _488  and  _489
REMARK  202  A    between atoms: _492  and  _494
REMARK  203  A    between atoms: _494  and  _495
REMARK  204  A    between atoms: _494  and  _497
REMARK  205  A    between atoms: _497  and  _498
REMARK  206  A    between atoms: _502  and  _503
REMARK  207  A    between atoms: _508  and  _510
REMARK  208  A    between atoms: _510  and  _511
REMARK  209  A    between atoms: _510  and  _513
REMARK  210  A    between atoms: _516  and  _518
REMARK  211  A    between atoms: _518  and  _519
REMARK  212  A    between atoms: _518  and  _521
REMARK  213  A    between atoms: _521  and  _522
REMARK  214  A    between atoms: _527  and  _529
REMARK  215  A    between atoms: _529  and  _530
REMARK  216  A    between atoms: _529  and  _532
REMARK  217  A    between atoms: _532  and  _533
REMARK  218  A    between atoms: _536  and  _538
REMARK  219  A    between atoms: _538  and  _539
REMARK  220  A    between atoms: _541  and  _543
REMARK  221  A    between atoms: _543  and  _544
REMARK  222  A    between atoms: _543  and  _546
REMARK  223  A    between atoms: _546  and  _547
REMARK  224  A    between atoms: _547  and  _548
REMARK  225  A    between atoms: _548  and  _549
REMARK  226  A    between atoms: _558  and  _560
REMARK  227  A    between atoms: _560  and  _561
REMARK  228  A    between atoms: _560  and  _563
REMARK  229  A    between atoms: _563  and  _564
REMARK                            x       y       z     vdW  Elec       q    Type
REMARK                         _______ _______ _______ _____ _____    ______ ____
ROOT
ATOM      1  O   HOH     1       4.455  18.968  22.573  0.00  0.00    +0.000 OA
ENDROOT
TORSDOF 0
REMARK  Name = ../refined-set-2016/4hdb/4hdb_pocket.pdb
REMARK  229 active torsions:
REMARK  status: ('A' for Active; 'I' for Inactive)
REMARK    1  A    between atoms: _1  and  _3
REMARK    2  A    between atoms: _3  and  _4
REMARK    3  A    between atoms: _3  and  _6
REMARK    4  A    between atoms: _6  and  _7
REMARK    5  A    between atoms: _7  and  _8
REMARK    6  A    between atoms: _8  and  _9
REMARK    7  A    between atoms: _18  and  _20
REMARK    8  A    between atoms: _20  and  _21
REMARK    9  A    between atoms: _20  and  _23
REMARK   10  A    between atoms: _23  and  _24
REMARK   11  A    between atoms: _27  and  _29
REMARK   12  A    between atoms: _29  and  _30
REMARK   13  A    between atoms: _29  and  _32
REMARK   14  A    between atoms: _32  and  _33
REMARK   15  A    between atoms: _36  and  _38
REMARK   16  A    between atoms: _38  and  _39
REMARK   17  A    between atoms: _38  and  _41
REMARK   18  A    between atoms: _41  and  _42
REMARK   19  A    between atoms: _45  and  _47
REMARK   20  A    between atoms: _47  and  _48
REMARK   21  A    between atoms: _47  and  _50
REMARK   22  A    between atoms: _50  and  _51
REMARK   23  A    between atoms: _54  and  _56
REMARK   24  A    between atoms: _56  and  _57
REMARK   25  A    between atoms: _59  and  _61
REMARK   26  A    between atoms: _61  and  _62
REMARK   27  A    between atoms: _65  and  _67
REMARK   28  A    between atoms: _67  and  _68
REMARK   29  A    between atoms: _67  and  _70
REMARK   30  A    between atoms: _70  and  _71
REMARK   31  A    between atoms: _74  and  _76
REMARK   32  A    between atoms: _76  and  _77
REMARK   33  A    between atoms: _76  and  _79
REMARK   34  A    between atoms: _79  and  _80
REMARK   35  A    between atoms: _85  and  _87
REMARK   36  A    between atoms: _87  and  _88
REMARK   37  A    between atoms: _87  and  _90
REMARK   38  A    between atoms: _90  and  _91
REMARK   39  A    between atoms: _94  and  _96
REMARK   40  A    between atoms: _96  and  _97
REMARK   41  A    between atoms: _96  and  _99
REMARK   42  A    between atoms: _102  and  _104
REMARK   43  A    between atoms: _104  and  _105
REMARK   44  A    between atoms: _104  and  _107
REMARK   45  A    between atoms: _107  and  _108
REMARK   46  A    between atoms: _108  and  _109
REMARK   47  A    between atoms: _109  and  _110
REMARK   48  A    between atoms: _110  and  _111
REMARK   49  A    between atoms: _115  and  _117
REMARK   50  A    between atoms: _117  and  _118
REMARK   51  A    between atoms: _117  and  _120
REMARK   52  A    between atoms: _120  and  _121
REMARK   53  A    between atoms: _121  and  _122
REMARK   54  A    between atoms: _124  and  _126
REMARK   55  A    between atoms: _126  and  _127
REMARK   56  A    between atoms: _126  and  _129
REMARK   57  A    between atoms: _129  and  _130
REMARK   58  A    between atoms: _133  and  _135
REMARK   59  A    between atoms: _135  and  _136
REMARK   60  A    between atoms: _138  and  _140
REMARK   61  A    between atoms: _140  and  _141
REMARK   62  A    between atoms: _143  and  _145
REMARK   63  A    between atoms: _145  and  _146
REMARK   64  A    between atoms: _145  and  _148
REMARK   65  A    between atoms: _148  and  _149
REMARK   66  A    between atoms: _152  and  _154
REMARK   67  A    between atoms: _154  and  _155
REMARK   68  A    between atoms: _157  and  _159
REMARK   69  A    between atoms: _159  and  _160
REMARK   70  A    between atoms: _162  and  _164
REMARK   71  A    between atoms: _164  and  _165
REMARK   72  A    between atoms: _164  and  _167
REMARK   73  A    between atoms: _167  and  _168
REMARK   74  A    between atoms: _174  and  _176
REMARK   75  A    between atoms: _176  and  _177
REMARK   76  A    between atoms: _176  and  _179
REMARK   77  A    between atoms: _179  and  _180
REMARK   78  A    between atoms: _183  and  _185
REMARK   79  A    between atoms: _185  and  _186
REMARK   80  A    between atoms: _185  and  _188
REMARK   81  A    between atoms: _191  and  _193
REMARK   82  A    between atoms: _193  and  _194
REMARK   83  A    between atoms: _193  and  _196
REMARK   84  A    between atoms: _196  and  _197
REMARK   85  A    between atoms: _201  and  _202
REMARK   86  A    between atoms: _207  and  _209
REMARK   87  A    between atoms: _209  and  _210
REMARK   88  A    between atoms: _209  and  _212
REMARK   89  A    between atoms: _212  and  _213
REMARK   90  A    between atoms: _217  and  _218
REMARK   91  A    between atoms: _223  and  _225
REMARK   92  A    between atoms: _225  and  _226
REMARK   93  A    between atoms: _225  and  _228
REMARK   94  A    between atoms: _231  and  _233
REMARK   95  A    between atoms: _233  and  _234
REMARK   96  A    between atoms: _233  and  _236
REMARK   97  A    between atoms: _236  and  _237
REMARK   98  A    between atoms: _242  and  _244
REMARK   99  A    between atoms: _244  and  _245
REMARK  100  A    between atoms: _244  and  _247
REMARK  101  A    between atoms: _247  and  _248
REMARK  102  A    between atoms: _251  and  _253
REMARK  103  A    between atoms: _253  and  _254
REMARK  104  A    between atoms: _253  and  _256
REMARK  105  A    between atoms: _256  and  _257
REMARK  106  A    between atoms: _260  and  _262
REMARK  107  A    between atoms: _262  and  _263
REMARK  108  A    between atoms: _265  and  _267
REMARK  109  A    between atoms: _267  and  _268
REMARK  110  A    between atoms: _267  and  _270
REMARK  111  A    between atoms: _270  and  _271
REMARK  112  A    between atoms: _271  and  _272
REMARK  113  A    between atoms: _272  and  _273
REMARK  114  A    between atoms: _282  and  _284
REMARK  115  A    between atoms: _284  and  _285
REMARK  116  A    between atoms: _284  and  _287
REMARK  117  A    between atoms: _287  and  _288
REMARK  118  A    between atoms: _293  and  _295
REMARK  119  A    between atoms: _295  and  _296
REMARK  120  A    between atoms: _295  and  _298
REMARK  121  A    between atoms: _298  and  _299
REMARK  122  A    between atoms: _299  and  _300
REMARK  123  A    between atoms: _300  and  _301
REMARK  124  A    between atoms: _310  and  _312
REMARK  125  A    between atoms: _312  and  _313
REMARK  126  A    between atoms: _312  and  _315
REMARK  127  A    between atoms: _315  and  _316
REMARK  128  A    between atoms: _319  and  _321
REMARK  129  A    between atoms: _321  and  _322
REMARK  130  A    between atoms: _321  and  _324
REMARK  131  A    between atoms: _324  and  _325
REMARK  132  A    between atoms: _328  and  _330
REMARK  133  A    between atoms: _330  and  _331
REMARK  134  A    between atoms: _330  and  _333
REMARK  135  A    between atoms: _333  and  _334
REMARK  136  A    between atoms: _337  and  _339
REMARK  137  A    between atoms: _339  and  _340
REMARK  138  A    between atoms: _339  and  _342
REMARK  139  A    between atoms: _342  and  _343
REMARK  140  A    between atoms: _346  and  _348
REMARK  141  A    between atoms: _348  and  _349
REMARK  142  A    between atoms: _351  and  _353
REMARK  143  A    between atoms: _353  and  _354
REMARK  144  A    between atoms: _357  and  _359
REMARK  145  A    between atoms: _359  and  _360
REMARK  146  A    between atoms: _359  and  _362
REMARK  147  A    between atoms: _362  and  _363
REMARK  148  A    between atoms: _366  and  _368
REMARK  149  A    between atoms: _368  and  _369
REMARK  150  A    between atoms: _368  and  _371
REMARK  151  A    between atoms: _371  and  _372
REMARK  152  A    between atoms: _377  and  _379
REMARK  153  A    between atoms: _379  and  _380
REMARK  154  A    between atoms: _379  and  _382
REMARK  155  A    between atoms: _382  and  _383
REMARK  156  A    between atoms: _386  and  _388
REMARK  157  A    between atoms: _388  and  _389
REMARK  158  A    between atoms: _388  and  _391
REMARK  159  A    between atoms: _394  and  _396
REMARK  160  A    between atoms: _396  and  _397
REMARK  161  A    between atoms: _396  and  _399
REMARK  162  A    between atoms: _399  and  _400
REMARK  163  A    between atoms: _400  and  _401
REMARK  164  A    between atoms: _401  and  _402
REMARK  165  A    between atoms: _402  and  _403
REMARK  166  A    between atoms: _407  and  _409
REMARK  167  A    between atoms: _409  and  _410
REMARK  168  A    between atoms: _409  and  _412
REMARK  169  A    between atoms: _412  and  _413
REMARK  170  A    between atoms: _413  and  _414
REMARK  171  A    between atoms: _416  and  _418
REMARK  172  A    between atoms: _418  and  _419
REMARK  173  A    between atoms: _418  and  _421
REMARK  174  A    between atoms: _421  and  _422
REMARK  175  A    between atoms: _425  and  _427
REMARK  176  A    between atoms: _427  and  _428
REMARK  177  A    between atoms: _430  and  _432
REMARK  178  A    between atoms: _432  and  _433
REMARK  179  A    between atoms: _435  and  _437
REMARK  180  A    between atoms: _437  and  _438
REMARK  181  A    between atoms: _437  and  _440
REMARK  182  A    between atoms: _440  and  _441
REMARK  183  A    between atoms: _444  and  _446
REMARK  184  A    between atoms: _446  and  _447
REMARK  185  A    between atoms: _449  and  _451
REMARK  186  A    between atoms: _451  and  _452
REMARK  187  A    between atoms: _454  and  _456
REMARK  188  A    between atoms: _456  and  _457
REMARK  189  A    between atoms: _456  and  _459
REMARK  190  A    between atoms: _459  and  _460
REMARK  191  A    between atoms: _466  and  _468
REMARK  192  A    between atoms: _468  and  _469
REMARK  193  A    between atoms: _468  and  _471
REMARK  194  A    between atoms: _471  and  _472
REMARK  195  A    between atoms: _475  and  _477
REMARK  196  A    between atoms: _477  and  _478
REMARK  197  A    between atoms: _477  and  _480
REMARK  198  A    between atoms: _483  and  _485
REMARK  199  A    between atoms: _485  and  _486
REMARK  200  A    between atoms: _485  and  _488
REMARK  201  A    between atoms: _488  and  _489
REMARK  202  A    between atoms: _492  and  _494
REMARK  203  A    between atoms: _494  and  _495
REMARK  204  A    between atoms: _494  and  _497
REMARK  205  A    between atoms: _497  and  _498
REMARK  206  A    between atoms: _502  and  _503
REMARK  207  A    between atoms: _508  and  _510
REMARK  208  A    between atoms: _510  and  _511
REMARK  209  A    between atoms: _510  and  _513
REMARK  210  A    between atoms: _516  and  _518
REMARK  211  A    between atoms: _518  and  _519
REMARK  212  A    between atoms: _518  and  _521
REMARK  213  A    between atoms: _521  and  _522
REMARK  214  A    between atoms: _527  and  _529
REMARK  215  A    between atoms: _529  and  _530
REMARK  216  A    between atoms: _529  and  _532
REMARK  217  A    between atoms: _532  and  _533
REMARK  218  A    between atoms: _536  and  _538
REMARK  219  A    between atoms: _538  and  _539
REMARK  220  A    between atoms: _541  and  _543
REMARK  221  A    between atoms: _543  and  _544
REMARK  222  A    between atoms: _543  and  _546
REMARK  223  A    between atoms: _546  and  _547
REMARK  224  A    between atoms: _547  and  _548
REMARK  225  A    between atoms: _548  and  _549
REMARK  226  A    between atoms: _558  and  _560
REMARK  227  A    between atoms: _560  and  _561
REMARK  228  A    between atoms: _560  and  _563
REMARK  229  A    between atoms: _563  and  _564
REMARK                            x       y       z     vdW  Elec       q    Type
REMARK                         _______ _______ _______ _____ _____    ______ ____
ROOT
ATOM      1  O   HOH     1       7.669  15.591  18.194  0.00  0.00    +0.000 OA
ENDROOT
TORSDOF 0
REMARK  Name = ../refined-set-2016/4hdb/4hdb_pocket.pdb
REMARK  229 active torsions:
REMARK  status: ('A' for Active; 'I' for Inactive)
REMARK    1  A    between atoms: _1  and  _3
REMARK    2  A    between atoms: _3  and  _4
REMARK    3  A    between atoms: _3  and  _6
REMARK    4  A    between atoms: _6  and  _7
REMARK    5  A    between atoms: _7  and  _8
REMARK    6  A    between atoms: _8  and  _9
REMARK    7  A    between atoms: _18  and  _20
REMARK    8  A    between atoms: _20  and  _21
REMARK    9  A    between atoms: _20  and  _23
REMARK   10  A    between atoms: _23  and  _24
REMARK   11  A    between atoms: _27  and  _29
REMARK   12  A    between atoms: _29  and  _30
REMARK   13  A    between atoms: _29  and  _32
REMARK   14  A    between atoms: _32  and  _33
REMARK   15  A    between atoms: _36  and  _38
REMARK   16  A    between atoms: _38  and  _39
REMARK   17  A    between atoms: _38  and  _41
REMARK   18  A    between atoms: _41  and  _42
REMARK   19  A    between atoms: _45  and  _47
REMARK   20  A    between atoms: _47  and  _48
REMARK   21  A    between atoms: _47  and  _50
REMARK   22  A    between atoms: _50  and  _51
REMARK   23  A    between atoms: _54  and  _56
REMARK   24  A    between atoms: _56  and  _57
REMARK   25  A    between atoms: _59  and  _61
REMARK   26  A    between atoms: _61  and  _62
REMARK   27  A    between atoms: _65  and  _67
REMARK   28  A    between atoms: _67  and  _68
REMARK   29  A    between atoms: _67  and  _70
REMARK   30  A    between atoms: _70  and  _71
REMARK   31  A    between atoms: _74  and  _76
REMARK   32  A    between atoms: _76  and  _77
REMARK   33  A    between atoms: _76  and  _79
REMARK   34  A    between atoms: _79  and  _80
REMARK   35  A    between atoms: _85  and  _87
REMARK   36  A    between atoms: _87  and  _88
REMARK   37  A    between atoms: _87  and  _90
REMARK   38  A    between atoms: _90  and  _91
REMARK   39  A    between atoms: _94  and  _96
REMARK   40  A    between atoms: _96  and  _97
REMARK   41  A    between atoms: _96  and  _99
REMARK   42  A    between atoms: _102  and  _104
REMARK   43  A    between atoms: _104  and  _105
REMARK   44  A    between atoms: _104  and  _107
REMARK   45  A    between atoms: _107  and  _108
REMARK   46  A    between atoms: _108  and  _109
REMARK   47  A    between atoms: _109  and  _110
REMARK   48  A    between atoms: _110  and  _111
REMARK   49  A    between atoms: _115  and  _117
REMARK   50  A    between atoms: _117  and  _118
REMARK   51  A    between atoms: _117  and  _120
REMARK   52  A    between atoms: _120  and  _121
REMARK   53  A    between atoms: _121  and  _122
REMARK   54  A    between atoms: _124  and  _126
REMARK   55  A    between atoms: _126  and  _127
REMARK   56  A    between atoms: _126  and  _129
REMARK   57  A    between atoms: _129  and  _130
REMARK   58  A    between atoms: _133  and  _135
REMARK   59  A    between atoms: _135  and  _136
REMARK   60  A    between atoms: _138  and  _140
REMARK   61  A    between atoms: _140  and  _141
REMARK   62  A    between atoms: _143  and  _145
REMARK   63  A    between atoms: _145  and  _146
REMARK   64  A    between atoms: _145  and  _148
REMARK   65  A    between atoms: _148  and  _149
REMARK   66  A    between atoms: _152  and  _154
REMARK   67  A    between atoms: _154  and  _155
REMARK   68  A    between atoms: _157  and  _159
REMARK   69  A    between atoms: _159  and  _160
REMARK   70  A    between atoms: _162  and  _164
REMARK   71  A    between atoms: _164  and  _165
REMARK   72  A    between atoms: _164  and  _167
REMARK   73  A    between atoms: _167  and  _168
REMARK   74  A    between atoms: _174  and  _176
REMARK   75  A    between atoms: _176  and  _177
REMARK   76  A    between atoms: _176  and  _179
REMARK   77  A    between atoms: _179  and  _180
REMARK   78  A    between atoms: _183  and  _185
REMARK   79  A    between atoms: _185  and  _186
REMARK   80  A    between atoms: _185  and  _188
REMARK   81  A    between atoms: _191  and  _193
REMARK   82  A    between atoms: _193  and  _194
REMARK   83  A    between atoms: _193  and  _196
REMARK   84  A    between atoms: _196  and  _197
REMARK   85  A    between atoms: _201  and  _202
REMARK   86  A    between atoms: _207  and  _209
REMARK   87  A    between atoms: _209  and  _210
REMARK   88  A    between atoms: _209  and  _212
REMARK   89  A    between atoms: _212  and  _213
REMARK   90  A    between atoms: _217  and  _218
REMARK   91  A    between atoms: _223  and  _225
REMARK   92  A    between atoms: _225  and  _226
REMARK   93  A    between atoms: _225  and  _228
REMARK   94  A    between atoms: _231  and  _233
REMARK   95  A    between atoms: _233  and  _234
REMARK   96  A    between atoms: _233  and  _236
REMARK   97  A    between atoms: _236  and  _237
REMARK   98  A    between atoms: _242  and  _244
REMARK   99  A    between atoms: _244  and  _245
REMARK  100  A    between atoms: _244  and  _247
REMARK  101  A    between atoms: _247  and  _248
REMARK  102  A    between atoms: _251  and  _253
REMARK  103  A    between atoms: _253  and  _254
REMARK  104  A    between atoms: _253  and  _256
REMARK  105  A    between atoms: _256  and  _257
REMARK  106  A    between atoms: _260  and  _262
REMARK  107  A    between atoms: _262  and  _263
REMARK  108  A    between atoms: _265  and  _267
REMARK  109  A    between atoms: _267  and  _268
REMARK  110  A    between atoms: _267  and  _270
REMARK  111  A    between atoms: _270  and  _271
REMARK  112  A    between atoms: _271  and  _272
REMARK  113  A    between atoms: _272  and  _273
REMARK  114  A    between atoms: _282  and  _284
REMARK  115  A    between atoms: _284  and  _285
REMARK  116  A    between atoms: _284  and  _287
REMARK  117  A    between atoms: _287  and  _288
REMARK  118  A    between atoms: _293  and  _295
REMARK  119  A    between atoms: _295  and  _296
REMARK  120  A    between atoms: _295  and  _298
REMARK  121  A    between atoms: _298  and  _299
REMARK  122  A    between atoms: _299  and  _300
REMARK  123  A    between atoms: _300  and  _301
REMARK  124  A    between atoms: _310  and  _312
REMARK  125  A    between atoms: _312  and  _313
REMARK  126  A    between atoms: _312  and  _315
REMARK  127  A    between atoms: _315  and  _316
REMARK  128  A    between atoms: _319  and  _321
REMARK  129  A    between atoms: _321  and  _322
REMARK  130  A    between atoms: _321  and  _324
REMARK  131  A    between atoms: _324  and  _325
REMARK  132  A    between atoms: _328  and  _330
REMARK  133  A    between atoms: _330  and  _331
REMARK  134  A    between atoms: _330  and  _333
REMARK  135  A    between atoms: _333  and  _334
REMARK  136  A    between atoms: _337  and  _339
REMARK  137  A    between atoms: _339  and  _340
REMARK  138  A    between atoms: _339  and  _342
REMARK  139  A    between atoms: _342  and  _343
REMARK  140  A    between atoms: _346  and  _348
REMARK  141  A    between atoms: _348  and  _349
REMARK  142  A    between atoms: _351  and  _353
REMARK  143  A    between atoms: _353  and  _354
REMARK  144  A    between atoms: _357  and  _359
REMARK  145  A    between atoms: _359  and  _360
REMARK  146  A    between atoms: _359  and  _362
REMARK  147  A    between atoms: _362  and  _363
REMARK  148  A    between atoms: _366  and  _368
REMARK  149  A    between atoms: _368  and  _369
REMARK  150  A    between atoms: _368  and  _371
REMARK  151  A    between atoms: _371  and  _372
REMARK  152  A    between atoms: _377  and  _379
REMARK  153  A    between atoms: _379  and  _380
REMARK  154  A    between atoms: _379  and  _382
REMARK  155  A    between atoms: _382  and  _383
REMARK  156  A    between atoms: _386  and  _388
REMARK  157  A    between atoms: _388  and  _389
REMARK  158  A    between atoms: _388  and  _391
REMARK  159  A    between atoms: _394  and  _396
REMARK  160  A    between atoms: _396  and  _397
REMARK  161  A    between atoms: _396  and  _399
REMARK  162  A    between atoms: _399  and  _400
REMARK  163  A    between atoms: _400  and  _401
REMARK  164  A    between atoms: _401  and  _402
REMARK  165  A    between atoms: _402  and  _403
REMARK  166  A    between atoms: _407  and  _409
REMARK  167  A    between atoms: _409  and  _410
REMARK  168  A    between atoms: _409  and  _412
REMARK  169  A    between atoms: _412  and  _413
REMARK  170  A    between atoms: _413  and  _414
REMARK  171  A    between atoms: _416  and  _418
REMARK  172  A    between atoms: _418  and  _419
REMARK  173  A    between atoms: _418  and  _421
REMARK  174  A    between atoms: _421  and  _422
REMARK  175  A    between atoms: _425  and  _427
REMARK  176  A    between atoms: _427  and  _428
REMARK  177  A    between atoms: _430  and  _432
REMARK  178  A    between atoms: _432  and  _433
REMARK  179  A    between atoms: _435  and  _437
REMARK  180  A    between atoms: _437  and  _438
REMARK  181  A    between atoms: _437  and  _440
REMARK  182  A    between atoms: _440  and  _441
REMARK  183  A    between atoms: _444  and  _446
REMARK  184  A    between atoms: _446  and  _447
REMARK  185  A    between atoms: _449  and  _451
REMARK  186  A    between atoms: _451  and  _452
REMARK  187  A    between atoms: _454  and  _456
REMARK  188  A    between atoms: _456  and  _457
REMARK  189  A    between atoms: _456  and  _459
REMARK  190  A    between atoms: _459  and  _460
REMARK  191  A    between atoms: _466  and  _468
REMARK  192  A    between atoms: _468  and  _469
REMARK  193  A    between atoms: _468  and  _471
REMARK  194  A    between atoms: _471  and  _472
REMARK  195  A    between atoms: _475  and  _477
REMARK  196  A    between atoms: _477  and  _478
REMARK  197  A    between atoms: _477  and  _480
REMARK  198  A    between atoms: _483  and  _485
REMARK  199  A    between atoms: _485  and  _486
REMARK  200  A    between atoms: _485  and  _488
REMARK  201  A    between atoms: _488  and  _489
REMARK  202  A    between atoms: _492  and  _494
REMARK  203  A    between atoms: _494  and  _495
REMARK  204  A    between atoms: _494  and  _497
REMARK  205  A    between atoms: _497  and  _498
REMARK  206  A    between atoms: _502  and  _503
REMARK  207  A    between atoms: _508  and  _510
REMARK  208  A    between atoms: _510  and  _511
REMARK  209  A    between atoms: _510  and  _513
REMARK  210  A    between atoms: _516  and  _518
REMARK  211  A    between atoms: _518  and  _519
REMARK  212  A    between atoms: _518  and  _521
REMARK  213  A    between atoms: _521  and  _522
REMARK  214  A    between atoms: _527  and  _529
REMARK  215  A    between atoms: _529  and  _530
REMARK  216  A    between atoms: _529  and  _532
REMARK  217  A    between atoms: _532  and  _533
REMARK  218  A    between atoms: _536  and  _538
REMARK  219  A    between atoms: _538  and  _539
REMARK  220  A    between atoms: _541  and  _543
REMARK  221  A    between atoms: _543  and  _544
REMARK  222  A    between atoms: _543  and  _546
REMARK  223  A    between atoms: _546  and  _547
REMARK  224  A    between atoms: _547  and  _548
REMARK  225  A    between atoms: _548  and  _549
REMARK  226  A    between atoms: _558  and  _560
REMARK  227  A    between atoms: _560  and  _561
REMARK  228  A    between atoms: _560  and  _563
REMARK  229  A    between atoms: _563  and  _564
REMARK                            x       y       z     vdW  Elec       q    Type
REMARK                         _______ _______ _______ _____ _____    ______ ____
ROOT
ATOM      1  O   HOH     1       8.791  22.030  16.406  0.00  0.00    +0.000 OA
ENDROOT
TORSDOF 0
REMARK  Name = ../refined-set-2016/4hdb/4hdb_pocket.pdb
REMARK  229 active torsions:
REMARK  status: ('A' for Active; 'I' for Inactive)
REMARK    1  A    between atoms: _1  and  _3
REMARK    2  A    between atoms: _3  and  _4
REMARK    3  A    between atoms: _3  and  _6
REMARK    4  A    between atoms: _6  and  _7
REMARK    5  A    between atoms: _7  and  _8
REMARK    6  A    between atoms: _8  and  _9
REMARK    7  A    between atoms: _18  and  _20
REMARK    8  A    between atoms: _20  and  _21
REMARK    9  A    between atoms: _20  and  _23
REMARK   10  A    between atoms: _23  and  _24
REMARK   11  A    between atoms: _27  and  _29
REMARK   12  A    between atoms: _29  and  _30
REMARK   13  A    between atoms: _29  and  _32
REMARK   14  A    between atoms: _32  and  _33
REMARK   15  A    between atoms: _36  and  _38
REMARK   16  A    between atoms: _38  and  _39
REMARK   17  A    between atoms: _38  and  _41
REMARK   18  A    between atoms: _41  and  _42
REMARK   19  A    between atoms: _45  and  _47
REMARK   20  A    between atoms: _47  and  _48
REMARK   21  A    between atoms: _47  and  _50
REMARK   22  A    between atoms: _50  and  _51
REMARK   23  A    between atoms: _54  and  _56
REMARK   24  A    between atoms: _56  and  _57
REMARK   25  A    between atoms: _59  and  _61
REMARK   26  A    between atoms: _61  and  _62
REMARK   27  A    between atoms: _65  and  _67
REMARK   28  A    between atoms: _67  and  _68
REMARK   29  A    between atoms: _67  and  _70
REMARK   30  A    between atoms: _70  and  _71
REMARK   31  A    between atoms: _74  and  _76
REMARK   32  A    between atoms: _76  and  _77
REMARK   33  A    between atoms: _76  and  _79
REMARK   34  A    between atoms: _79  and  _80
REMARK   35  A    between atoms: _85  and  _87
REMARK   36  A    between atoms: _87  and  _88
REMARK   37  A    between atoms: _87  and  _90
REMARK   38  A    between atoms: _90  and  _91
REMARK   39  A    between atoms: _94  and  _96
REMARK   40  A    between atoms: _96  and  _97
REMARK   41  A    between atoms: _96  and  _99
REMARK   42  A    between atoms: _102  and  _104
REMARK   43  A    between atoms: _104  and  _105
REMARK   44  A    between atoms: _104  and  _107
REMARK   45  A    between atoms: _107  and  _108
REMARK   46  A    between atoms: _108  and  _109
REMARK   47  A    between atoms: _109  and  _110
REMARK   48  A    between atoms: _110  and  _111
REMARK   49  A    between atoms: _115  and  _117
REMARK   50  A    between atoms: _117  and  _118
REMARK   51  A    between atoms: _117  and  _120
REMARK   52  A    between atoms: _120  and  _121
REMARK   53  A    between atoms: _121  and  _122
REMARK   54  A    between atoms: _124  and  _126
REMARK   55  A    between atoms: _126  and  _127
REMARK   56  A    between atoms: _126  and  _129
REMARK   57  A    between atoms: _129  and  _130
REMARK   58  A    between atoms: _133  and  _135
REMARK   59  A    between atoms: _135  and  _136
REMARK   60  A    between atoms: _138  and  _140
REMARK   61  A    between atoms: _140  and  _141
REMARK   62  A    between atoms: _143  and  _145
REMARK   63  A    between atoms: _145  and  _146
REMARK   64  A    between atoms: _145  and  _148
REMARK   65  A    between atoms: _148  and  _149
REMARK   66  A    between atoms: _152  and  _154
REMARK   67  A    between atoms: _154  and  _155
REMARK   68  A    between atoms: _157  and  _159
REMARK   69  A    between atoms: _159  and  _160
REMARK   70  A    between atoms: _162  and  _164
REMARK   71  A    between atoms: _164  and  _165
REMARK   72  A    between atoms: _164  and  _167
REMARK   73  A    between atoms: _167  and  _168
REMARK   74  A    between atoms: _174  and  _176
REMARK   75  A    between atoms: _176  and  _177
REMARK   76  A    between atoms: _176  and  _179
REMARK   77  A    between atoms: _179  and  _180
REMARK   78  A    between atoms: _183  and  _185
REMARK   79  A    between atoms: _185  and  _186
REMARK   80  A    between atoms: _185  and  _188
REMARK   81  A    between atoms: _191  and  _193
REMARK   82  A    between atoms: _193  and  _194
REMARK   83  A    between atoms: _193  and  _196
REMARK   84  A    between atoms: _196  and  _197
REMARK   85  A    between atoms: _201  and  _202
REMARK   86  A    between atoms: _207  and  _209
REMARK   87  A    between atoms: _209  and  _210
REMARK   88  A    between atoms: _209  and  _212
REMARK   89  A    between atoms: _212  and  _213
REMARK   90  A    between atoms: _217  and  _218
REMARK   91  A    between atoms: _223  and  _225
REMARK   92  A    between atoms: _225  and  _226
REMARK   93  A    between atoms: _225  and  _228
REMARK   94  A    between atoms: _231  and  _233
REMARK   95  A    between atoms: _233  and  _234
REMARK   96  A    between atoms: _233  and  _236
REMARK   97  A    between atoms: _236  and  _237
REMARK   98  A    between atoms: _242  and  _244
REMARK   99  A    between atoms: _244  and  _245
REMARK  100  A    between atoms: _244  and  _247
REMARK  101  A    between atoms: _247  and  _248
REMARK  102  A    between atoms: _251  and  _253
REMARK  103  A    between atoms: _253  and  _254
REMARK  104  A    between atoms: _253  and  _256
REMARK  105  A    between atoms: _256  and  _257
REMARK  106  A    between atoms: _260  and  _262
REMARK  107  A    between atoms: _262  and  _263
REMARK  108  A    between atoms: _265  and  _267
REMARK  109  A    between atoms: _267  and  _268
REMARK  110  A    between atoms: _267  and  _270
REMARK  111  A    between atoms: _270  and  _271
REMARK  112  A    between atoms: _271  and  _272
REMARK  113  A    between atoms: _272  and  _273
REMARK  114  A    between atoms: _282  and  _284
REMARK  115  A    between atoms: _284  and  _285
REMARK  116  A    between atoms: _284  and  _287
REMARK  117  A    between atoms: _287  and  _288
REMARK  118  A    between atoms: _293  and  _295
REMARK  119  A    between atoms: _295  and  _296
REMARK  120  A    between atoms: _295  and  _298
REMARK  121  A    between atoms: _298  and  _299
REMARK  122  A    between atoms: _299  and  _300
REMARK  123  A    between atoms: _300  and  _301
REMARK  124  A    between atoms: _310  and  _312
REMARK  125  A    between atoms: _312  and  _313
REMARK  126  A    between atoms: _312  and  _315
REMARK  127  A    between atoms: _315  and  _316
REMARK  128  A    between atoms: _319  and  _321
REMARK  129  A    between atoms: _321  and  _322
REMARK  130  A    between atoms: _321  and  _324
REMARK  131  A    between atoms: _324  and  _325
REMARK  132  A    between atoms: _328  and  _330
REMARK  133  A    between atoms: _330  and  _331
REMARK  134  A    between atoms: _330  and  _333
REMARK  135  A    between atoms: _333  and  _334
REMARK  136  A    between atoms: _337  and  _339
REMARK  137  A    between atoms: _339  and  _340
REMARK  138  A    between atoms: _339  and  _342
REMARK  139  A    between atoms: _342  and  _343
REMARK  140  A    between atoms: _346  and  _348
REMARK  141  A    between atoms: _348  and  _349
REMARK  142  A    between atoms: _351  and  _353
REMARK  143  A    between atoms: _353  and  _354
REMARK  144  A    between atoms: _357  and  _359
REMARK  145  A    between atoms: _359  and  _360
REMARK  146  A    between atoms: _359  and  _362
REMARK  147  A    between atoms: _362  and  _363
REMARK  148  A    between atoms: _366  and  _368
REMARK  149  A    between atoms: _368  and  _369
REMARK  150  A    between atoms: _368  and  _371
REMARK  151  A    between atoms: _371  and  _372
REMARK  152  A    between atoms: _377  and  _379
REMARK  153  A    between atoms: _379  and  _380
REMARK  154  A    between atoms: _379  and  _382
REMARK  155  A    between atoms: _382  and  _383
REMARK  156  A    between atoms: _386  and  _388
REMARK  157  A    between atoms: _388  and  _389
REMARK  158  A    between atoms: _388  and  _391
REMARK  159  A    between atoms: _394  and  _396
REMARK  160  A    between atoms: _396  and  _397
REMARK  161  A    between atoms: _396  and  _399
REMARK  162  A    between atoms: _399  and  _400
REMARK  163  A    between atoms: _400  and  _401
REMARK  164  A    between atoms: _401  and  _402
REMARK  165  A    between atoms: _402  and  _403
REMARK  166  A    between atoms: _407  and  _409
REMARK  167  A    between atoms: _409  and  _410
REMARK  168  A    between atoms: _409  and  _412
REMARK  169  A    between atoms: _412  and  _413
REMARK  170  A    between atoms: _413  and  _414
REMARK  171  A    between atoms: _416  and  _418
REMARK  172  A    between atoms: _418  and  _419
REMARK  173  A    between atoms: _418  and  _421
REMARK  174  A    between atoms: _421  and  _422
REMARK  175  A    between atoms: _425  and  _427
REMARK  176  A    between atoms: _427  and  _428
REMARK  177  A    between atoms: _430  and  _432
REMARK  178  A    between atoms: _432  and  _433
REMARK  179  A    between atoms: _435  and  _437
REMARK  180  A    between atoms: _437  and  _438
REMARK  181  A    between atoms: _437  and  _440
REMARK  182  A    between atoms: _440  and  _441
REMARK  183  A    between atoms: _444  and  _446
REMARK  184  A    between atoms: _446  and  _447
REMARK  185  A    between atoms: _449  and  _451
REMARK  186  A    between atoms: _451  and  _452
REMARK  187  A    between atoms: _454  and  _456
REMARK  188  A    between atoms: _456  and  _457
REMARK  189  A    between atoms: _456  and  _459
REMARK  190  A    between atoms: _459  and  _460
REMARK  191  A    between atoms: _466  and  _468
REMARK  192  A    between atoms: _468  and  _469
REMARK  193  A    between atoms: _468  and  _471
REMARK  194  A    between atoms: _471  and  _472
REMARK  195  A    between atoms: _475  and  _477
REMARK  196  A    between atoms: _477  and  _478
REMARK  197  A    between atoms: _477  and  _480
REMARK  198  A    between atoms: _483  and  _485
REMARK  199  A    between atoms: _485  and  _486
REMARK  200  A    between atoms: _485  and  _488
REMARK  201  A    between atoms: _488  and  _489
REMARK  202  A    between atoms: _492  and  _494
REMARK  203  A    between atoms: _494  and  _495
REMARK  204  A    between atoms: _494  and  _497
REMARK  205  A    between atoms: _497  and  _498
REMARK  206  A    between atoms: _502  and  _503
REMARK  207  A    between atoms: _508  and  _510
REMARK  208  A    between atoms: _510  and  _511
REMARK  209  A    between atoms: _510  and  _513
REMARK  210  A    between atoms: _516  and  _518
REMARK  211  A    between atoms: _518  and  _519
REMARK  212  A    between atoms: _518  and  _521
REMARK  213  A    between atoms: _521  and  _522
REMARK  214  A    between atoms: _527  and  _529
REMARK  215  A    between atoms: _529  and  _530
REMARK  216  A    between atoms: _529  and  _532
REMARK  217  A    between atoms: _532  and  _533
REMARK  218  A    between atoms: _536  and  _538
REMARK  219  A    between atoms: _538  and  _539
REMARK  220  A    between atoms: _541  and  _543
REMARK  221  A    between atoms: _543  and  _544
REMARK  222  A    between atoms: _543  and  _546
REMARK  223  A    between atoms: _546  and  _547
REMARK  224  A    between atoms: _547  and  _548
REMARK  225  A    between atoms: _548  and  _549
REMARK  226  A    between atoms: _558  and  _560
REMARK  227  A    between atoms: _560  and  _561
REMARK  228  A    between atoms: _560  and  _563
REMARK  229  A    between atoms: _563  and  _564
REMARK                            x       y       z     vdW  Elec       q    Type
REMARK                         _______ _______ _______ _____ _____    ______ ____
ROOT
ATOM      1  O   HOH     1      16.150  15.636  11.483  0.00  0.00    +0.000 OA
ENDROOT
TORSDOF 0
REMARK  Name = ../refined-set-2016/4hdb/4hdb_pocket.pdb
REMARK  229 active torsions:
REMARK  status: ('A' for Active; 'I' for Inactive)
REMARK    1  A    between atoms: _1  and  _3
REMARK    2  A    between atoms: _3  and  _4
REMARK    3  A    between atoms: _3  and  _6
REMARK    4  A    between atoms: _6  and  _7
REMARK    5  A    between atoms: _7  and  _8
REMARK    6  A    between atoms: _8  and  _9
REMARK    7  A    between atoms: _18  and  _20
REMARK    8  A    between atoms: _20  and  _21
REMARK    9  A    between atoms: _20  and  _23
REMARK   10  A    between atoms: _23  and  _24
REMARK   11  A    between atoms: _27  and  _29
REMARK   12  A    between atoms: _29  and  _30
REMARK   13  A    between atoms: _29  and  _32
REMARK   14  A    between atoms: _32  and  _33
REMARK   15  A    between atoms: _36  and  _38
REMARK   16  A    between atoms: _38  and  _39
REMARK   17  A    between atoms: _38  and  _41
REMARK   18  A    between atoms: _41  and  _42
REMARK   19  A    between atoms: _45  and  _47
REMARK   20  A    between atoms: _47  and  _48
REMARK   21  A    between atoms: _47  and  _50
REMARK   22  A    between atoms: _50  and  _51
REMARK   23  A    between atoms: _54  and  _56
REMARK   24  A    between atoms: _56  and  _57
REMARK   25  A    between atoms: _59  and  _61
REMARK   26  A    between atoms: _61  and  _62
REMARK   27  A    between atoms: _65  and  _67
REMARK   28  A    between atoms: _67  and  _68
REMARK   29  A    between atoms: _67  and  _70
REMARK   30  A    between atoms: _70  and  _71
REMARK   31  A    between atoms: _74  and  _76
REMARK   32  A    between atoms: _76  and  _77
REMARK   33  A    between atoms: _76  and  _79
REMARK   34  A    between atoms: _79  and  _80
REMARK   35  A    between atoms: _85  and  _87
REMARK   36  A    between atoms: _87  and  _88
REMARK   37  A    between atoms: _87  and  _90
REMARK   38  A    between atoms: _90  and  _91
REMARK   39  A    between atoms: _94  and  _96
REMARK   40  A    between atoms: _96  and  _97
REMARK   41  A    between atoms: _96  and  _99
REMARK   42  A    between atoms: _102  and  _104
REMARK   43  A    between atoms: _104  and  _105
REMARK   44  A    between atoms: _104  and  _107
REMARK   45  A    between atoms: _107  and  _108
REMARK   46  A    between atoms: _108  and  _109
REMARK   47  A    between atoms: _109  and  _110
REMARK   48  A    between atoms: _110  and  _111
REMARK   49  A    between atoms: _115  and  _117
REMARK   50  A    between atoms: _117  and  _118
REMARK   51  A    between atoms: _117  and  _120
REMARK   52  A    between atoms: _120  and  _121
REMARK   53  A    between atoms: _121  and  _122
REMARK   54  A    between atoms: _124  and  _126
REMARK   55  A    between atoms: _126  and  _127
REMARK   56  A    between atoms: _126  and  _129
REMARK   57  A    between atoms: _129  and  _130
REMARK   58  A    between atoms: _133  and  _135
REMARK   59  A    between atoms: _135  and  _136
REMARK   60  A    between atoms: _138  and  _140
REMARK   61  A    between atoms: _140  and  _141
REMARK   62  A    between atoms: _143  and  _145
REMARK   63  A    between atoms: _145  and  _146
REMARK   64  A    between atoms: _145  and  _148
REMARK   65  A    between atoms: _148  and  _149
REMARK   66  A    between atoms: _152  and  _154
REMARK   67  A    between atoms: _154  and  _155
REMARK   68  A    between atoms: _157  and  _159
REMARK   69  A    between atoms: _159  and  _160
REMARK   70  A    between atoms: _162  and  _164
REMARK   71  A    between atoms: _164  and  _165
REMARK   72  A    between atoms: _164  and  _167
REMARK   73  A    between atoms: _167  and  _168
REMARK   74  A    between atoms: _174  and  _176
REMARK   75  A    between atoms: _176  and  _177
REMARK   76  A    between atoms: _176  and  _179
REMARK   77  A    between atoms: _179  and  _180
REMARK   78  A    between atoms: _183  and  _185
REMARK   79  A    between atoms: _185  and  _186
REMARK   80  A    between atoms: _185  and  _188
REMARK   81  A    between atoms: _191  and  _193
REMARK   82  A    between atoms: _193  and  _194
REMARK   83  A    between atoms: _193  and  _196
REMARK   84  A    between atoms: _196  and  _197
REMARK   85  A    between atoms: _201  and  _202
REMARK   86  A    between atoms: _207  and  _209
REMARK   87  A    between atoms: _209  and  _210
REMARK   88  A    between atoms: _209  and  _212
REMARK   89  A    between atoms: _212  and  _213
REMARK   90  A    between atoms: _217  and  _218
REMARK   91  A    between atoms: _223  and  _225
REMARK   92  A    between atoms: _225  and  _226
REMARK   93  A    between atoms: _225  and  _228
REMARK   94  A    between atoms: _231  and  _233
REMARK   95  A    between atoms: _233  and  _234
REMARK   96  A    between atoms: _233  and  _236
REMARK   97  A    between atoms: _236  and  _237
REMARK   98  A    between atoms: _242  and  _244
REMARK   99  A    between atoms: _244  and  _245
REMARK  100  A    between atoms: _244  and  _247
REMARK  101  A    between atoms: _247  and  _248
REMARK  102  A    between atoms: _251  and  _253
REMARK  103  A    between atoms: _253  and  _254
REMARK  104  A    between atoms: _253  and  _256
REMARK  105  A    between atoms: _256  and  _257
REMARK  106  A    between atoms: _260  and  _262
REMARK  107  A    between atoms: _262  and  _263
REMARK  108  A    between atoms: _265  and  _267
REMARK  109  A    between atoms: _267  and  _268
REMARK  110  A    between atoms: _267  and  _270
REMARK  111  A    between atoms: _270  and  _271
REMARK  112  A    between atoms: _271  and  _272
REMARK  113  A    between atoms: _272  and  _273
REMARK  114  A    between atoms: _282  and  _284
REMARK  115  A    between atoms: _284  and  _285
REMARK  116  A    between atoms: _284  and  _287
REMARK  117  A    between atoms: _287  and  _288
REMARK  118  A    between atoms: _293  and  _295
REMARK  119  A    between atoms: _295  and  _296
REMARK  120  A    between atoms: _295  and  _298
REMARK  121  A    between atoms: _298  and  _299
REMARK  122  A    between atoms: _299  and  _300
REMARK  123  A    between atoms: _300  and  _301
REMARK  124  A    between atoms: _310  and  _312
REMARK  125  A    between atoms: _312  and  _313
REMARK  126  A    between atoms: _312  and  _315
REMARK  127  A    between atoms: _315  and  _316
REMARK  128  A    between atoms: _319  and  _321
REMARK  129  A    between atoms: _321  and  _322
REMARK  130  A    between atoms: _321  and  _324
REMARK  131  A    between atoms: _324  and  _325
REMARK  132  A    between atoms: _328  and  _330
REMARK  133  A    between atoms: _330  and  _331
REMARK  134  A    between atoms: _330  and  _333
REMARK  135  A    between atoms: _333  and  _334
REMARK  136  A    between atoms: _337  and  _339
REMARK  137  A    between atoms: _339  and  _340
REMARK  138  A    between atoms: _339  and  _342
REMARK  139  A    between atoms: _342  and  _343
REMARK  140  A    between atoms: _346  and  _348
REMARK  141  A    between atoms: _348  and  _349
REMARK  142  A    between atoms: _351  and  _353
REMARK  143  A    between atoms: _353  and  _354
REMARK  144  A    between atoms: _357  and  _359
REMARK  145  A    between atoms: _359  and  _360
REMARK  146  A    between atoms: _359  and  _362
REMARK  147  A    between atoms: _362  and  _363
REMARK  148  A    between atoms: _366  and  _368
REMARK  149  A    between atoms: _368  and  _369
REMARK  150  A    between atoms: _368  and  _371
REMARK  151  A    between atoms: _371  and  _372
REMARK  152  A    between atoms: _377  and  _379
REMARK  153  A    between atoms: _379  and  _380
REMARK  154  A    between atoms: _379  and  _382
REMARK  155  A    between atoms: _382  and  _383
REMARK  156  A    between atoms: _386  and  _388
REMARK  157  A    between atoms: _388  and  _389
REMARK  158  A    between atoms: _388  and  _391
REMARK  159  A    between atoms: _394  and  _396
REMARK  160  A    between atoms: _396  and  _397
REMARK  161  A    between atoms: _396  and  _399
REMARK  162  A    between atoms: _399  and  _400
REMARK  163  A    between atoms: _400  and  _401
REMARK  164  A    between atoms: _401  and  _402
REMARK  165  A    between atoms: _402  and  _403
REMARK  166  A    between atoms: _407  and  _409
REMARK  167  A    between atoms: _409  and  _410
REMARK  168  A    between atoms: _409  and  _412
REMARK  169  A    between atoms: _412  and  _413
REMARK  170  A    between atoms: _413  and  _414
REMARK  171  A    between atoms: _416  and  _418
REMARK  172  A    between atoms: _418  and  _419
REMARK  173  A    between atoms: _418  and  _421
REMARK  174  A    between atoms: _421  and  _422
REMARK  175  A    between atoms: _425  and  _427
REMARK  176  A    between atoms: _427  and  _428
REMARK  177  A    between atoms: _430  and  _432
REMARK  178  A    between atoms: _432  and  _433
REMARK  179  A    between atoms: _435  and  _437
REMARK  180  A    between atoms: _437  and  _438
REMARK  181  A    between atoms: _437  and  _440
REMARK  182  A    between atoms: _440  and  _441
REMARK  183  A    between atoms: _444  and  _446
REMARK  184  A    between atoms: _446  and  _447
REMARK  185  A    between atoms: _449  and  _451
REMARK  186  A    between atoms: _451  and  _452
REMARK  187  A    between atoms: _454  and  _456
REMARK  188  A    between atoms: _456  and  _457
REMARK  189  A    between atoms: _456  and  _459
REMARK  190  A    between atoms: _459  and  _460
REMARK  191  A    between atoms: _466  and  _468
REMARK  192  A    between atoms: _468  and  _469
REMARK  193  A    between atoms: _468  and  _471
REMARK  194  A    between atoms: _471  and  _472
REMARK  195  A    between atoms: _475  and  _477
REMARK  196  A    between atoms: _477  and  _478
REMARK  197  A    between atoms: _477  and  _480
REMARK  198  A    between atoms: _483  and  _485
REMARK  199  A    between atoms: _485  and  _486
REMARK  200  A    between atoms: _485  and  _488
REMARK  201  A    between atoms: _488  and  _489
REMARK  202  A    between atoms: _492  and  _494
REMARK  203  A    between atoms: _494  and  _495
REMARK  204  A    between atoms: _494  and  _497
REMARK  205  A    between atoms: _497  and  _498
REMARK  206  A    between atoms: _502  and  _503
REMARK  207  A    between atoms: _508  and  _510
REMARK  208  A    between atoms: _510  and  _511
REMARK  209  A    between atoms: _510  and  _513
REMARK  210  A    between atoms: _516  and  _518
REMARK  211  A    between atoms: _518  and  _519
REMARK  212  A    between atoms: _518  and  _521
REMARK  213  A    between atoms: _521  and  _522
REMARK  214  A    between atoms: _527  and  _529
REMARK  215  A    between atoms: _529  and  _530
REMARK  216  A    between atoms: _529  and  _532
REMARK  217  A    between atoms: _532  and  _533
REMARK  218  A    between atoms: _536  and  _538
REMARK  219  A    between atoms: _538  and  _539
REMARK  220  A    between atoms: _541  and  _543
REMARK  221  A    between atoms: _543  and  _544
REMARK  222  A    between atoms: _543  and  _546
REMARK  223  A    between atoms: _546  and  _547
REMARK  224  A    between atoms: _547  and  _548
REMARK  225  A    between atoms: _548  and  _549
REMARK  226  A    between atoms: _558  and  _560
REMARK  227  A    between atoms: _560  and  _561
REMARK  228  A    between atoms: _560  and  _563
REMARK  229  A    between atoms: _563  and  _564
REMARK                            x       y       z     vdW  Elec       q    Type
REMARK                         _______ _______ _______ _____ _____    ______ ____
ROOT
ATOM      1  O   HOH     1      13.638  15.989  11.866  0.00  0.00    +0.000 OA
ENDROOT
TORSDOF 0
REMARK  Name = ../refined-set-2016/4hdb/4hdb_pocket.pdb
REMARK  229 active torsions:
REMARK  status: ('A' for Active; 'I' for Inactive)
REMARK    1  A    between atoms: _1  and  _3
REMARK    2  A    between atoms: _3  and  _4
REMARK    3  A    between atoms: _3  and  _6
REMARK    4  A    between atoms: _6  and  _7
REMARK    5  A    between atoms: _7  and  _8
REMARK    6  A    between atoms: _8  and  _9
REMARK    7  A    between atoms: _18  and  _20
REMARK    8  A    between atoms: _20  and  _21
REMARK    9  A    between atoms: _20  and  _23
REMARK   10  A    between atoms: _23  and  _24
REMARK   11  A    between atoms: _27  and  _29
REMARK   12  A    between atoms: _29  and  _30
REMARK   13  A    between atoms: _29  and  _32
REMARK   14  A    between atoms: _32  and  _33
REMARK   15  A    between atoms: _36  and  _38
REMARK   16  A    between atoms: _38  and  _39
REMARK   17  A    between atoms: _38  and  _41
REMARK   18  A    between atoms: _41  and  _42
REMARK   19  A    between atoms: _45  and  _47
REMARK   20  A    between atoms: _47  and  _48
REMARK   21  A    between atoms: _47  and  _50
REMARK   22  A    between atoms: _50  and  _51
REMARK   23  A    between atoms: _54  and  _56
REMARK   24  A    between atoms: _56  and  _57
REMARK   25  A    between atoms: _59  and  _61
REMARK   26  A    between atoms: _61  and  _62
REMARK   27  A    between atoms: _65  and  _67
REMARK   28  A    between atoms: _67  and  _68
REMARK   29  A    between atoms: _67  and  _70
REMARK   30  A    between atoms: _70  and  _71
REMARK   31  A    between atoms: _74  and  _76
REMARK   32  A    between atoms: _76  and  _77
REMARK   33  A    between atoms: _76  and  _79
REMARK   34  A    between atoms: _79  and  _80
REMARK   35  A    between atoms: _85  and  _87
REMARK   36  A    between atoms: _87  and  _88
REMARK   37  A    between atoms: _87  and  _90
REMARK   38  A    between atoms: _90  and  _91
REMARK   39  A    between atoms: _94  and  _96
REMARK   40  A    between atoms: _96  and  _97
REMARK   41  A    between atoms: _96  and  _99
REMARK   42  A    between atoms: _102  and  _104
REMARK   43  A    between atoms: _104  and  _105
REMARK   44  A    between atoms: _104  and  _107
REMARK   45  A    between atoms: _107  and  _108
REMARK   46  A    between atoms: _108  and  _109
REMARK   47  A    between atoms: _109  and  _110
REMARK   48  A    between atoms: _110  and  _111
REMARK   49  A    between atoms: _115  and  _117
REMARK   50  A    between atoms: _117  and  _118
REMARK   51  A    between atoms: _117  and  _120
REMARK   52  A    between atoms: _120  and  _121
REMARK   53  A    between atoms: _121  and  _122
REMARK   54  A    between atoms: _124  and  _126
REMARK   55  A    between atoms: _126  and  _127
REMARK   56  A    between atoms: _126  and  _129
REMARK   57  A    between atoms: _129  and  _130
REMARK   58  A    between atoms: _133  and  _135
REMARK   59  A    between atoms: _135  and  _136
REMARK   60  A    between atoms: _138  and  _140
REMARK   61  A    between atoms: _140  and  _141
REMARK   62  A    between atoms: _143  and  _145
REMARK   63  A    between atoms: _145  and  _146
REMARK   64  A    between atoms: _145  and  _148
REMARK   65  A    between atoms: _148  and  _149
REMARK   66  A    between atoms: _152  and  _154
REMARK   67  A    between atoms: _154  and  _155
REMARK   68  A    between atoms: _157  and  _159
REMARK   69  A    between atoms: _159  and  _160
REMARK   70  A    between atoms: _162  and  _164
REMARK   71  A    between atoms: _164  and  _165
REMARK   72  A    between atoms: _164  and  _167
REMARK   73  A    between atoms: _167  and  _168
REMARK   74  A    between atoms: _174  and  _176
REMARK   75  A    between atoms: _176  and  _177
REMARK   76  A    between atoms: _176  and  _179
REMARK   77  A    between atoms: _179  and  _180
REMARK   78  A    between atoms: _183  and  _185
REMARK   79  A    between atoms: _185  and  _186
REMARK   80  A    between atoms: _185  and  _188
REMARK   81  A    between atoms: _191  and  _193
REMARK   82  A    between atoms: _193  and  _194
REMARK   83  A    between atoms: _193  and  _196
REMARK   84  A    between atoms: _196  and  _197
REMARK   85  A    between atoms: _201  and  _202
REMARK   86  A    between atoms: _207  and  _209
REMARK   87  A    between atoms: _209  and  _210
REMARK   88  A    between atoms: _209  and  _212
REMARK   89  A    between atoms: _212  and  _213
REMARK   90  A    between atoms: _217  and  _218
REMARK   91  A    between atoms: _223  and  _225
REMARK   92  A    between atoms: _225  and  _226
REMARK   93  A    between atoms: _225  and  _228
REMARK   94  A    between atoms: _231  and  _233
REMARK   95  A    between atoms: _233  and  _234
REMARK   96  A    between atoms: _233  and  _236
REMARK   97  A    between atoms: _236  and  _237
REMARK   98  A    between atoms: _242  and  _244
REMARK   99  A    between atoms: _244  and  _245
REMARK  100  A    between atoms: _244  and  _247
REMARK  101  A    between atoms: _247  and  _248
REMARK  102  A    between atoms: _251  and  _253
REMARK  103  A    between atoms: _253  and  _254
REMARK  104  A    between atoms: _253  and  _256
REMARK  105  A    between atoms: _256  and  _257
REMARK  106  A    between atoms: _260  and  _262
REMARK  107  A    between atoms: _262  and  _263
REMARK  108  A    between atoms: _265  and  _267
REMARK  109  A    between atoms: _267  and  _268
REMARK  110  A    between atoms: _267  and  _270
REMARK  111  A    between atoms: _270  and  _271
REMARK  112  A    between atoms: _271  and  _272
REMARK  113  A    between atoms: _272  and  _273
REMARK  114  A    between atoms: _282  and  _284
REMARK  115  A    between atoms: _284  and  _285
REMARK  116  A    between atoms: _284  and  _287
REMARK  117  A    between atoms: _287  and  _288
REMARK  118  A    between atoms: _293  and  _295
REMARK  119  A    between atoms: _295  and  _296
REMARK  120  A    between atoms: _295  and  _298
REMARK  121  A    between atoms: _298  and  _299
REMARK  122  A    between atoms: _299  and  _300
REMARK  123  A    between atoms: _300  and  _301
REMARK  124  A    between atoms: _310  and  _312
REMARK  125  A    between atoms: _312  and  _313
REMARK  126  A    between atoms: _312  and  _315
REMARK  127  A    between atoms: _315  and  _316
REMARK  128  A    between atoms: _319  and  _321
REMARK  129  A    between atoms: _321  and  _322
REMARK  130  A    between atoms: _321  and  _324
REMARK  131  A    between atoms: _324  and  _325
REMARK  132  A    between atoms: _328  and  _330
REMARK  133  A    between atoms: _330  and  _331
REMARK  134  A    between atoms: _330  and  _333
REMARK  135  A    between atoms: _333  and  _334
REMARK  136  A    between atoms: _337  and  _339
REMARK  137  A    between atoms: _339  and  _340
REMARK  138  A    between atoms: _339  and  _342
REMARK  139  A    between atoms: _342  and  _343
REMARK  140  A    between atoms: _346  and  _348
REMARK  141  A    between atoms: _348  and  _349
REMARK  142  A    between atoms: _351  and  _353
REMARK  143  A    between atoms: _353  and  _354
REMARK  144  A    between atoms: _357  and  _359
REMARK  145  A    between atoms: _359  and  _360
REMARK  146  A    between atoms: _359  and  _362
REMARK  147  A    between atoms: _362  and  _363
REMARK  148  A    between atoms: _366  and  _368
REMARK  149  A    between atoms: _368  and  _369
REMARK  150  A    between atoms: _368  and  _371
REMARK  151  A    between atoms: _371  and  _372
REMARK  152  A    between atoms: _377  and  _379
REMARK  153  A    between atoms: _379  and  _380
REMARK  154  A    between atoms: _379  and  _382
REMARK  155  A    between atoms: _382  and  _383
REMARK  156  A    between atoms: _386  and  _388
REMARK  157  A    between atoms: _388  and  _389
REMARK  158  A    between atoms: _388  and  _391
REMARK  159  A    between atoms: _394  and  _396
REMARK  160  A    between atoms: _396  and  _397
REMARK  161  A    between atoms: _396  and  _399
REMARK  162  A    between atoms: _399  and  _400
REMARK  163  A    between atoms: _400  and  _401
REMARK  164  A    between atoms: _401  and  _402
REMARK  165  A    between atoms: _402  and  _403
REMARK  166  A    between atoms: _407  and  _409
REMARK  167  A    between atoms: _409  and  _410
REMARK  168  A    between atoms: _409  and  _412
REMARK  169  A    between atoms: _412  and  _413
REMARK  170  A    between atoms: _413  and  _414
REMARK  171  A    between atoms: _416  and  _418
REMARK  172  A    between atoms: _418  and  _419
REMARK  173  A    between atoms: _418  and  _421
REMARK  174  A    between atoms: _421  and  _422
REMARK  175  A    between atoms: _425  and  _427
REMARK  176  A    between atoms: _427  and  _428
REMARK  177  A    between atoms: _430  and  _432
REMARK  178  A    between atoms: _432  and  _433
REMARK  179  A    between atoms: _435  and  _437
REMARK  180  A    between atoms: _437  and  _438
REMARK  181  A    between atoms: _437  and  _440
REMARK  182  A    between atoms: _440  and  _441
REMARK  183  A    between atoms: _444  and  _446
REMARK  184  A    between atoms: _446  and  _447
REMARK  185  A    between atoms: _449  and  _451
REMARK  186  A    between atoms: _451  and  _452
REMARK  187  A    between atoms: _454  and  _456
REMARK  188  A    between atoms: _456  and  _457
REMARK  189  A    between atoms: _456  and  _459
REMARK  190  A    between atoms: _459  and  _460
REMARK  191  A    between atoms: _466  and  _468
REMARK  192  A    between atoms: _468  and  _469
REMARK  193  A    between atoms: _468  and  _471
REMARK  194  A    between atoms: _471  and  _472
REMARK  195  A    between atoms: _475  and  _477
REMARK  196  A    between atoms: _477  and  _478
REMARK  197  A    between atoms: _477  and  _480
REMARK  198  A    between atoms: _483  and  _485
REMARK  199  A    between atoms: _485  and  _486
REMARK  200  A    between atoms: _485  and  _488
REMARK  201  A    between atoms: _488  and  _489
REMARK  202  A    between atoms: _492  and  _494
REMARK  203  A    between atoms: _494  and  _495
REMARK  204  A    between atoms: _494  and  _497
REMARK  205  A    between atoms: _497  and  _498
REMARK  206  A    between atoms: _502  and  _503
REMARK  207  A    between atoms: _508  and  _510
REMARK  208  A    between atoms: _510  and  _511
REMARK  209  A    between atoms: _510  and  _513
REMARK  210  A    between atoms: _516  and  _518
REMARK  211  A    between atoms: _518  and  _519
REMARK  212  A    between atoms: _518  and  _521
REMARK  213  A    between atoms: _521  and  _522
REMARK  214  A    between atoms: _527  and  _529
REMARK  215  A    between atoms: _529  and  _530
REMARK  216  A    between atoms: _529  and  _532
REMARK  217  A    between atoms: _532  and  _533
REMARK  218  A    between atoms: _536  and  _538
REMARK  219  A    between atoms: _538  and  _539
REMARK  220  A    between atoms: _541  and  _543
REMARK  221  A    between atoms: _543  and  _544
REMARK  222  A    between atoms: _543  and  _546
REMARK  223  A    between atoms: _546  and  _547
REMARK  224  A    between atoms: _547  and  _548
REMARK  225  A    between atoms: _548  and  _549
REMARK  226  A    between atoms: _558  and  _560
REMARK  227  A    between atoms: _560  and  _561
REMARK  228  A    between atoms: _560  and  _563
REMARK  229  A    between atoms: _563  and  _564
REMARK                            x       y       z     vdW  Elec       q    Type
REMARK                         _______ _______ _______ _____ _____    ______ ____
ROOT
ATOM      1  O   HOH     1       6.453  14.111  20.546  0.00  0.00    +0.000 OA
ENDROOT
TORSDOF 0
REMARK  Name = ../refined-set-2016/4hdb/4hdb_pocket.pdb
REMARK  229 active torsions:
REMARK  status: ('A' for Active; 'I' for Inactive)
REMARK    1  A    between atoms: _1  and  _3
REMARK    2  A    between atoms: _3  and  _4
REMARK    3  A    between atoms: _3  and  _6
REMARK    4  A    between atoms: _6  and  _7
REMARK    5  A    between atoms: _7  and  _8
REMARK    6  A    between atoms: _8  and  _9
REMARK    7  A    between atoms: _18  and  _20
REMARK    8  A    between atoms: _20  and  _21
REMARK    9  A    between atoms: _20  and  _23
REMARK   10  A    between atoms: _23  and  _24
REMARK   11  A    between atoms: _27  and  _29
REMARK   12  A    between atoms: _29  and  _30
REMARK   13  A    between atoms: _29  and  _32
REMARK   14  A    between atoms: _32  and  _33
REMARK   15  A    between atoms: _36  and  _38
REMARK   16  A    between atoms: _38  and  _39
REMARK   17  A    between atoms: _38  and  _41
REMARK   18  A    between atoms: _41  and  _42
REMARK   19  A    between atoms: _45  and  _47
REMARK   20  A    between atoms: _47  and  _48
REMARK   21  A    between atoms: _47  and  _50
REMARK   22  A    between atoms: _50  and  _51
REMARK   23  A    between atoms: _54  and  _56
REMARK   24  A    between atoms: _56  and  _57
REMARK   25  A    between atoms: _59  and  _61
REMARK   26  A    between atoms: _61  and  _62
REMARK   27  A    between atoms: _65  and  _67
REMARK   28  A    between atoms: _67  and  _68
REMARK   29  A    between atoms: _67  and  _70
REMARK   30  A    between atoms: _70  and  _71
REMARK   31  A    between atoms: _74  and  _76
REMARK   32  A    between atoms: _76  and  _77
REMARK   33  A    between atoms: _76  and  _79
REMARK   34  A    between atoms: _79  and  _80
REMARK   35  A    between atoms: _85  and  _87
REMARK   36  A    between atoms: _87  and  _88
REMARK   37  A    between atoms: _87  and  _90
REMARK   38  A    between atoms: _90  and  _91
REMARK   39  A    between atoms: _94  and  _96
REMARK   40  A    between atoms: _96  and  _97
REMARK   41  A    between atoms: _96  and  _99
REMARK   42  A    between atoms: _102  and  _104
REMARK   43  A    between atoms: _104  and  _105
REMARK   44  A    between atoms: _104  and  _107
REMARK   45  A    between atoms: _107  and  _108
REMARK   46  A    between atoms: _108  and  _109
REMARK   47  A    between atoms: _109  and  _110
REMARK   48  A    between atoms: _110  and  _111
REMARK   49  A    between atoms: _115  and  _117
REMARK   50  A    between atoms: _117  and  _118
REMARK   51  A    between atoms: _117  and  _120
REMARK   52  A    between atoms: _120  and  _121
REMARK   53  A    between atoms: _121  and  _122
REMARK   54  A    between atoms: _124  and  _126
REMARK   55  A    between atoms: _126  and  _127
REMARK   56  A    between atoms: _126  and  _129
REMARK   57  A    between atoms: _129  and  _130
REMARK   58  A    between atoms: _133  and  _135
REMARK   59  A    between atoms: _135  and  _136
REMARK   60  A    between atoms: _138  and  _140
REMARK   61  A    between atoms: _140  and  _141
REMARK   62  A    between atoms: _143  and  _145
REMARK   63  A    between atoms: _145  and  _146
REMARK   64  A    between atoms: _145  and  _148
REMARK   65  A    between atoms: _148  and  _149
REMARK   66  A    between atoms: _152  and  _154
REMARK   67  A    between atoms: _154  and  _155
REMARK   68  A    between atoms: _157  and  _159
REMARK   69  A    between atoms: _159  and  _160
REMARK   70  A    between atoms: _162  and  _164
REMARK   71  A    between atoms: _164  and  _165
REMARK   72  A    between atoms: _164  and  _167
REMARK   73  A    between atoms: _167  and  _168
REMARK   74  A    between atoms: _174  and  _176
REMARK   75  A    between atoms: _176  and  _177
REMARK   76  A    between atoms: _176  and  _179
REMARK   77  A    between atoms: _179  and  _180
REMARK   78  A    between atoms: _183  and  _185
REMARK   79  A    between atoms: _185  and  _186
REMARK   80  A    between atoms: _185  and  _188
REMARK   81  A    between atoms: _191  and  _193
REMARK   82  A    between atoms: _193  and  _194
REMARK   83  A    between atoms: _193  and  _196
REMARK   84  A    between atoms: _196  and  _197
REMARK   85  A    between atoms: _201  and  _202
REMARK   86  A    between atoms: _207  and  _209
REMARK   87  A    between atoms: _209  and  _210
REMARK   88  A    between atoms: _209  and  _212
REMARK   89  A    between atoms: _212  and  _213
REMARK   90  A    between atoms: _217  and  _218
REMARK   91  A    between atoms: _223  and  _225
REMARK   92  A    between atoms: _225  and  _226
REMARK   93  A    between atoms: _225  and  _228
REMARK   94  A    between atoms: _231  and  _233
REMARK   95  A    between atoms: _233  and  _234
REMARK   96  A    between atoms: _233  and  _236
REMARK   97  A    between atoms: _236  and  _237
REMARK   98  A    between atoms: _242  and  _244
REMARK   99  A    between atoms: _244  and  _245
REMARK  100  A    between atoms: _244  and  _247
REMARK  101  A    between atoms: _247  and  _248
REMARK  102  A    between atoms: _251  and  _253
REMARK  103  A    between atoms: _253  and  _254
REMARK  104  A    between atoms: _253  and  _256
REMARK  105  A    between atoms: _256  and  _257
REMARK  106  A    between atoms: _260  and  _262
REMARK  107  A    between atoms: _262  and  _263
REMARK  108  A    between atoms: _265  and  _267
REMARK  109  A    between atoms: _267  and  _268
REMARK  110  A    between atoms: _267  and  _270
REMARK  111  A    between atoms: _270  and  _271
REMARK  112  A    between atoms: _271  and  _272
REMARK  113  A    between atoms: _272  and  _273
REMARK  114  A    between atoms: _282  and  _284
REMARK  115  A    between atoms: _284  and  _285
REMARK  116  A    between atoms: _284  and  _287
REMARK  117  A    between atoms: _287  and  _288
REMARK  118  A    between atoms: _293  and  _295
REMARK  119  A    between atoms: _295  and  _296
REMARK  120  A    between atoms: _295  and  _298
REMARK  121  A    between atoms: _298  and  _299
REMARK  122  A    between atoms: _299  and  _300
REMARK  123  A    between atoms: _300  and  _301
REMARK  124  A    between atoms: _310  and  _312
REMARK  125  A    between atoms: _312  and  _313
REMARK  126  A    between atoms: _312  and  _315
REMARK  127  A    between atoms: _315  and  _316
REMARK  128  A    between atoms: _319  and  _321
REMARK  129  A    between atoms: _321  and  _322
REMARK  130  A    between atoms: _321  and  _324
REMARK  131  A    between atoms: _324  and  _325
REMARK  132  A    between atoms: _328  and  _330
REMARK  133  A    between atoms: _330  and  _331
REMARK  134  A    between atoms: _330  and  _333
REMARK  135  A    between atoms: _333  and  _334
REMARK  136  A    between atoms: _337  and  _339
REMARK  137  A    between atoms: _339  and  _340
REMARK  138  A    between atoms: _339  and  _342
REMARK  139  A    between atoms: _342  and  _343
REMARK  140  A    between atoms: _346  and  _348
REMARK  141  A    between atoms: _348  and  _349
REMARK  142  A    between atoms: _351  and  _353
REMARK  143  A    between atoms: _353  and  _354
REMARK  144  A    between atoms: _357  and  _359
REMARK  145  A    between atoms: _359  and  _360
REMARK  146  A    between atoms: _359  and  _362
REMARK  147  A    between atoms: _362  and  _363
REMARK  148  A    between atoms: _366  and  _368
REMARK  149  A    between atoms: _368  and  _369
REMARK  150  A    between atoms: _368  and  _371
REMARK  151  A    between atoms: _371  and  _372
REMARK  152  A    between atoms: _377  and  _379
REMARK  153  A    between atoms: _379  and  _380
REMARK  154  A    between atoms: _379  and  _382
REMARK  155  A    between atoms: _382  and  _383
REMARK  156  A    between atoms: _386  and  _388
REMARK  157  A    between atoms: _388  and  _389
REMARK  158  A    between atoms: _388  and  _391
REMARK  159  A    between atoms: _394  and  _396
REMARK  160  A    between atoms: _396  and  _397
REMARK  161  A    between atoms: _396  and  _399
REMARK  162  A    between atoms: _399  and  _400
REMARK  163  A    between atoms: _400  and  _401
REMARK  164  A    between atoms: _401  and  _402
REMARK  165  A    between atoms: _402  and  _403
REMARK  166  A    between atoms: _407  and  _409
REMARK  167  A    between atoms: _409  and  _410
REMARK  168  A    between atoms: _409  and  _412
REMARK  169  A    between atoms: _412  and  _413
REMARK  170  A    between atoms: _413  and  _414
REMARK  171  A    between atoms: _416  and  _418
REMARK  172  A    between atoms: _418  and  _419
REMARK  173  A    between atoms: _418  and  _421
REMARK  174  A    between atoms: _421  and  _422
REMARK  175  A    between atoms: _425  and  _427
REMARK  176  A    between atoms: _427  and  _428
REMARK  177  A    between atoms: _430  and  _432
REMARK  178  A    between atoms: _432  and  _433
REMARK  179  A    between atoms: _435  and  _437
REMARK  180  A    between atoms: _437  and  _438
REMARK  181  A    between atoms: _437  and  _440
REMARK  182  A    between atoms: _440  and  _441
REMARK  183  A    between atoms: _444  and  _446
REMARK  184  A    between atoms: _446  and  _447
REMARK  185  A    between atoms: _449  and  _451
REMARK  186  A    between atoms: _451  and  _452
REMARK  187  A    between atoms: _454  and  _456
REMARK  188  A    between atoms: _456  and  _457
REMARK  189  A    between atoms: _456  and  _459
REMARK  190  A    between atoms: _459  and  _460
REMARK  191  A    between atoms: _466  and  _468
REMARK  192  A    between atoms: _468  and  _469
REMARK  193  A    between atoms: _468  and  _471
REMARK  194  A    between atoms: _471  and  _472
REMARK  195  A    between atoms: _475  and  _477
REMARK  196  A    between atoms: _477  and  _478
REMARK  197  A    between atoms: _477  and  _480
REMARK  198  A    between atoms: _483  and  _485
REMARK  199  A    between atoms: _485  and  _486
REMARK  200  A    between atoms: _485  and  _488
REMARK  201  A    between atoms: _488  and  _489
REMARK  202  A    between atoms: _492  and  _494
REMARK  203  A    between atoms: _494  and  _495
REMARK  204  A    between atoms: _494  and  _497
REMARK  205  A    between atoms: _497  and  _498
REMARK  206  A    between atoms: _502  and  _503
REMARK  207  A    between atoms: _508  and  _510
REMARK  208  A    between atoms: _510  and  _511
REMARK  209  A    between atoms: _510  and  _513
REMARK  210  A    between atoms: _516  and  _518
REMARK  211  A    between atoms: _518  and  _519
REMARK  212  A    between atoms: _518  and  _521
REMARK  213  A    between atoms: _521  and  _522
REMARK  214  A    between atoms: _527  and  _529
REMARK  215  A    between atoms: _529  and  _530
REMARK  216  A    between atoms: _529  and  _532
REMARK  217  A    between atoms: _532  and  _533
REMARK  218  A    between atoms: _536  and  _538
REMARK  219  A    between atoms: _538  and  _539
REMARK  220  A    between atoms: _541  and  _543
REMARK  221  A    between atoms: _543  and  _544
REMARK  222  A    between atoms: _543  and  _546
REMARK  223  A    between atoms: _546  and  _547
REMARK  224  A    between atoms: _547  and  _548
REMARK  225  A    between atoms: _548  and  _549
REMARK  226  A    between atoms: _558  and  _560
REMARK  227  A    between atoms: _560  and  _561
REMARK  228  A    between atoms: _560  and  _563
REMARK  229  A    between atoms: _563  and  _564
REMARK                            x       y       z     vdW  Elec       q    Type
REMARK                         _______ _______ _______ _____ _____    ______ ____
ROOT
ATOM      1  O   HOH     1      11.350  14.930  13.498  0.00  0.00    +0.000 OA
ENDROOT
TORSDOF 0
REMARK  Name = ../refined-set-2016/4hdb/4hdb_pocket.pdb
REMARK  229 active torsions:
REMARK  status: ('A' for Active; 'I' for Inactive)
REMARK    1  A    between atoms: _1  and  _3
REMARK    2  A    between atoms: _3  and  _4
REMARK    3  A    between atoms: _3  and  _6
REMARK    4  A    between atoms: _6  and  _7
REMARK    5  A    between atoms: _7  and  _8
REMARK    6  A    between atoms: _8  and  _9
REMARK    7  A    between atoms: _18  and  _20
REMARK    8  A    between atoms: _20  and  _21
REMARK    9  A    between atoms: _20  and  _23
REMARK   10  A    between atoms: _23  and  _24
REMARK   11  A    between atoms: _27  and  _29
REMARK   12  A    between atoms: _29  and  _30
REMARK   13  A    between atoms: _29  and  _32
REMARK   14  A    between atoms: _32  and  _33
REMARK   15  A    between atoms: _36  and  _38
REMARK   16  A    between atoms: _38  and  _39
REMARK   17  A    between atoms: _38  and  _41
REMARK   18  A    between atoms: _41  and  _42
REMARK   19  A    between atoms: _45  and  _47
REMARK   20  A    between atoms: _47  and  _48
REMARK   21  A    between atoms: _47  and  _50
REMARK   22  A    between atoms: _50  and  _51
REMARK   23  A    between atoms: _54  and  _56
REMARK   24  A    between atoms: _56  and  _57
REMARK   25  A    between atoms: _59  and  _61
REMARK   26  A    between atoms: _61  and  _62
REMARK   27  A    between atoms: _65  and  _67
REMARK   28  A    between atoms: _67  and  _68
REMARK   29  A    between atoms: _67  and  _70
REMARK   30  A    between atoms: _70  and  _71
REMARK   31  A    between atoms: _74  and  _76
REMARK   32  A    between atoms: _76  and  _77
REMARK   33  A    between atoms: _76  and  _79
REMARK   34  A    between atoms: _79  and  _80
REMARK   35  A    between atoms: _85  and  _87
REMARK   36  A    between atoms: _87  and  _88
REMARK   37  A    between atoms: _87  and  _90
REMARK   38  A    between atoms: _90  and  _91
REMARK   39  A    between atoms: _94  and  _96
REMARK   40  A    between atoms: _96  and  _97
REMARK   41  A    between atoms: _96  and  _99
REMARK   42  A    between atoms: _102  and  _104
REMARK   43  A    between atoms: _104  and  _105
REMARK   44  A    between atoms: _104  and  _107
REMARK   45  A    between atoms: _107  and  _108
REMARK   46  A    between atoms: _108  and  _109
REMARK   47  A    between atoms: _109  and  _110
REMARK   48  A    between atoms: _110  and  _111
REMARK   49  A    between atoms: _115  and  _117
REMARK   50  A    between atoms: _117  and  _118
REMARK   51  A    between atoms: _117  and  _120
REMARK   52  A    between atoms: _120  and  _121
REMARK   53  A    between atoms: _121  and  _122
REMARK   54  A    between atoms: _124  and  _126
REMARK   55  A    between atoms: _126  and  _127
REMARK   56  A    between atoms: _126  and  _129
REMARK   57  A    between atoms: _129  and  _130
REMARK   58  A    between atoms: _133  and  _135
REMARK   59  A    between atoms: _135  and  _136
REMARK   60  A    between atoms: _138  and  _140
REMARK   61  A    between atoms: _140  and  _141
REMARK   62  A    between atoms: _143  and  _145
REMARK   63  A    between atoms: _145  and  _146
REMARK   64  A    between atoms: _145  and  _148
REMARK   65  A    between atoms: _148  and  _149
REMARK   66  A    between atoms: _152  and  _154
REMARK   67  A    between atoms: _154  and  _155
REMARK   68  A    between atoms: _157  and  _159
REMARK   69  A    between atoms: _159  and  _160
REMARK   70  A    between atoms: _162  and  _164
REMARK   71  A    between atoms: _164  and  _165
REMARK   72  A    between atoms: _164  and  _167
REMARK   73  A    between atoms: _167  and  _168
REMARK   74  A    between atoms: _174  and  _176
REMARK   75  A    between atoms: _176  and  _177
REMARK   76  A    between atoms: _176  and  _179
REMARK   77  A    between atoms: _179  and  _180
REMARK   78  A    between atoms: _183  and  _185
REMARK   79  A    between atoms: _185  and  _186
REMARK   80  A    between atoms: _185  and  _188
REMARK   81  A    between atoms: _191  and  _193
REMARK   82  A    between atoms: _193  and  _194
REMARK   83  A    between atoms: _193  and  _196
REMARK   84  A    between atoms: _196  and  _197
REMARK   85  A    between atoms: _201  and  _202
REMARK   86  A    between atoms: _207  and  _209
REMARK   87  A    between atoms: _209  and  _210
REMARK   88  A    between atoms: _209  and  _212
REMARK   89  A    between atoms: _212  and  _213
REMARK   90  A    between atoms: _217  and  _218
REMARK   91  A    between atoms: _223  and  _225
REMARK   92  A    between atoms: _225  and  _226
REMARK   93  A    between atoms: _225  and  _228
REMARK   94  A    between atoms: _231  and  _233
REMARK   95  A    between atoms: _233  and  _234
REMARK   96  A    between atoms: _233  and  _236
REMARK   97  A    between atoms: _236  and  _237
REMARK   98  A    between atoms: _242  and  _244
REMARK   99  A    between atoms: _244  and  _245
REMARK  100  A    between atoms: _244  and  _247
REMARK  101  A    between atoms: _247  and  _248
REMARK  102  A    between atoms: _251  and  _253
REMARK  103  A    between atoms: _253  and  _254
REMARK  104  A    between atoms: _253  and  _256
REMARK  105  A    between atoms: _256  and  _257
REMARK  106  A    between atoms: _260  and  _262
REMARK  107  A    between atoms: _262  and  _263
REMARK  108  A    between atoms: _265  and  _267
REMARK  109  A    between atoms: _267  and  _268
REMARK  110  A    between atoms: _267  and  _270
REMARK  111  A    between atoms: _270  and  _271
REMARK  112  A    between atoms: _271  and  _272
REMARK  113  A    between atoms: _272  and  _273
REMARK  114  A    between atoms: _282  and  _284
REMARK  115  A    between atoms: _284  and  _285
REMARK  116  A    between atoms: _284  and  _287
REMARK  117  A    between atoms: _287  and  _288
REMARK  118  A    between atoms: _293  and  _295
REMARK  119  A    between atoms: _295  and  _296
REMARK  120  A    between atoms: _295  and  _298
REMARK  121  A    between atoms: _298  and  _299
REMARK  122  A    between atoms: _299  and  _300
REMARK  123  A    between atoms: _300  and  _301
REMARK  124  A    between atoms: _310  and  _312
REMARK  125  A    between atoms: _312  and  _313
REMARK  126  A    between atoms: _312  and  _315
REMARK  127  A    between atoms: _315  and  _316
REMARK  128  A    between atoms: _319  and  _321
REMARK  129  A    between atoms: _321  and  _322
REMARK  130  A    between atoms: _321  and  _324
REMARK  131  A    between atoms: _324  and  _325
REMARK  132  A    between atoms: _328  and  _330
REMARK  133  A    between atoms: _330  and  _331
REMARK  134  A    between atoms: _330  and  _333
REMARK  135  A    between atoms: _333  and  _334
REMARK  136  A    between atoms: _337  and  _339
REMARK  137  A    between atoms: _339  and  _340
REMARK  138  A    between atoms: _339  and  _342
REMARK  139  A    between atoms: _342  and  _343
REMARK  140  A    between atoms: _346  and  _348
REMARK  141  A    between atoms: _348  and  _349
REMARK  142  A    between atoms: _351  and  _353
REMARK  143  A    between atoms: _353  and  _354
REMARK  144  A    between atoms: _357  and  _359
REMARK  145  A    between atoms: _359  and  _360
REMARK  146  A    between atoms: _359  and  _362
REMARK  147  A    between atoms: _362  and  _363
REMARK  148  A    between atoms: _366  and  _368
REMARK  149  A    between atoms: _368  and  _369
REMARK  150  A    between atoms: _368  and  _371
REMARK  151  A    between atoms: _371  and  _372
REMARK  152  A    between atoms: _377  and  _379
REMARK  153  A    between atoms: _379  and  _380
REMARK  154  A    between atoms: _379  and  _382
REMARK  155  A    between atoms: _382  and  _383
REMARK  156  A    between atoms: _386  and  _388
REMARK  157  A    between atoms: _388  and  _389
REMARK  158  A    between atoms: _388  and  _391
REMARK  159  A    between atoms: _394  and  _396
REMARK  160  A    between atoms: _396  and  _397
REMARK  161  A    between atoms: _396  and  _399
REMARK  162  A    between atoms: _399  and  _400
REMARK  163  A    between atoms: _400  and  _401
REMARK  164  A    between atoms: _401  and  _402
REMARK  165  A    between atoms: _402  and  _403
REMARK  166  A    between atoms: _407  and  _409
REMARK  167  A    between atoms: _409  and  _410
REMARK  168  A    between atoms: _409  and  _412
REMARK  169  A    between atoms: _412  and  _413
REMARK  170  A    between atoms: _413  and  _414
REMARK  171  A    between atoms: _416  and  _418
REMARK  172  A    between atoms: _418  and  _419
REMARK  173  A    between atoms: _418  and  _421
REMARK  174  A    between atoms: _421  and  _422
REMARK  175  A    between atoms: _425  and  _427
REMARK  176  A    between atoms: _427  and  _428
REMARK  177  A    between atoms: _430  and  _432
REMARK  178  A    between atoms: _432  and  _433
REMARK  179  A    between atoms: _435  and  _437
REMARK  180  A    between atoms: _437  and  _438
REMARK  181  A    between atoms: _437  and  _440
REMARK  182  A    between atoms: _440  and  _441
REMARK  183  A    between atoms: _444  and  _446
REMARK  184  A    between atoms: _446  and  _447
REMARK  185  A    between atoms: _449  and  _451
REMARK  186  A    between atoms: _451  and  _452
REMARK  187  A    between atoms: _454  and  _456
REMARK  188  A    between atoms: _456  and  _457
REMARK  189  A    between atoms: _456  and  _459
REMARK  190  A    between atoms: _459  and  _460
REMARK  191  A    between atoms: _466  and  _468
REMARK  192  A    between atoms: _468  and  _469
REMARK  193  A    between atoms: _468  and  _471
REMARK  194  A    between atoms: _471  and  _472
REMARK  195  A    between atoms: _475  and  _477
REMARK  196  A    between atoms: _477  and  _478
REMARK  197  A    between atoms: _477  and  _480
REMARK  198  A    between atoms: _483  and  _485
REMARK  199  A    between atoms: _485  and  _486
REMARK  200  A    between atoms: _485  and  _488
REMARK  201  A    between atoms: _488  and  _489
REMARK  202  A    between atoms: _492  and  _494
REMARK  203  A    between atoms: _494  and  _495
REMARK  204  A    between atoms: _494  and  _497
REMARK  205  A    between atoms: _497  and  _498
REMARK  206  A    between atoms: _502  and  _503
REMARK  207  A    between atoms: _508  and  _510
REMARK  208  A    between atoms: _510  and  _511
REMARK  209  A    between atoms: _510  and  _513
REMARK  210  A    between atoms: _516  and  _518
REMARK  211  A    between atoms: _518  and  _519
REMARK  212  A    between atoms: _518  and  _521
REMARK  213  A    between atoms: _521  and  _522
REMARK  214  A    between atoms: _527  and  _529
REMARK  215  A    between atoms: _529  and  _530
REMARK  216  A    between atoms: _529  and  _532
REMARK  217  A    between atoms: _532  and  _533
REMARK  218  A    between atoms: _536  and  _538
REMARK  219  A    between atoms: _538  and  _539
REMARK  220  A    between atoms: _541  and  _543
REMARK  221  A    between atoms: _543  and  _544
REMARK  222  A    between atoms: _543  and  _546
REMARK  223  A    between atoms: _546  and  _547
REMARK  224  A    between atoms: _547  and  _548
REMARK  225  A    between atoms: _548  and  _549
REMARK  226  A    between atoms: _558  and  _560
REMARK  227  A    between atoms: _560  and  _561
REMARK  228  A    between atoms: _560  and  _563
REMARK  229  A    between atoms: _563  and  _564
REMARK                            x       y       z     vdW  Elec       q    Type
REMARK                         _______ _______ _______ _____ _____    ______ ____
ROOT
ATOM      1  O   HOH     1      21.967  27.286  25.585  0.00  0.00    +0.000 OA
ENDROOT
TORSDOF 0
REMARK  Name = ../refined-set-2016/4hdb/4hdb_pocket.pdb
REMARK  229 active torsions:
REMARK  status: ('A' for Active; 'I' for Inactive)
REMARK    1  A    between atoms: _1  and  _3
REMARK    2  A    between atoms: _3  and  _4
REMARK    3  A    between atoms: _3  and  _6
REMARK    4  A    between atoms: _6  and  _7
REMARK    5  A    between atoms: _7  and  _8
REMARK    6  A    between atoms: _8  and  _9
REMARK    7  A    between atoms: _18  and  _20
REMARK    8  A    between atoms: _20  and  _21
REMARK    9  A    between atoms: _20  and  _23
REMARK   10  A    between atoms: _23  and  _24
REMARK   11  A    between atoms: _27  and  _29
REMARK   12  A    between atoms: _29  and  _30
REMARK   13  A    between atoms: _29  and  _32
REMARK   14  A    between atoms: _32  and  _33
REMARK   15  A    between atoms: _36  and  _38
REMARK   16  A    between atoms: _38  and  _39
REMARK   17  A    between atoms: _38  and  _41
REMARK   18  A    between atoms: _41  and  _42
REMARK   19  A    between atoms: _45  and  _47
REMARK   20  A    between atoms: _47  and  _48
REMARK   21  A    between atoms: _47  and  _50
REMARK   22  A    between atoms: _50  and  _51
REMARK   23  A    between atoms: _54  and  _56
REMARK   24  A    between atoms: _56  and  _57
REMARK   25  A    between atoms: _59  and  _61
REMARK   26  A    between atoms: _61  and  _62
REMARK   27  A    between atoms: _65  and  _67
REMARK   28  A    between atoms: _67  and  _68
REMARK   29  A    between atoms: _67  and  _70
REMARK   30  A    between atoms: _70  and  _71
REMARK   31  A    between atoms: _74  and  _76
REMARK   32  A    between atoms: _76  and  _77
REMARK   33  A    between atoms: _76  and  _79
REMARK   34  A    between atoms: _79  and  _80
REMARK   35  A    between atoms: _85  and  _87
REMARK   36  A    between atoms: _87  and  _88
REMARK   37  A    between atoms: _87  and  _90
REMARK   38  A    between atoms: _90  and  _91
REMARK   39  A    between atoms: _94  and  _96
REMARK   40  A    between atoms: _96  and  _97
REMARK   41  A    between atoms: _96  and  _99
REMARK   42  A    between atoms: _102  and  _104
REMARK   43  A    between atoms: _104  and  _105
REMARK   44  A    between atoms: _104  and  _107
REMARK   45  A    between atoms: _107  and  _108
REMARK   46  A    between atoms: _108  and  _109
REMARK   47  A    between atoms: _109  and  _110
REMARK   48  A    between atoms: _110  and  _111
REMARK   49  A    between atoms: _115  and  _117
REMARK   50  A    between atoms: _117  and  _118
REMARK   51  A    between atoms: _117  and  _120
REMARK   52  A    between atoms: _120  and  _121
REMARK   53  A    between atoms: _121  and  _122
REMARK   54  A    between atoms: _124  and  _126
REMARK   55  A    between atoms: _126  and  _127
REMARK   56  A    between atoms: _126  and  _129
REMARK   57  A    between atoms: _129  and  _130
REMARK   58  A    between atoms: _133  and  _135
REMARK   59  A    between atoms: _135  and  _136
REMARK   60  A    between atoms: _138  and  _140
REMARK   61  A    between atoms: _140  and  _141
REMARK   62  A    between atoms: _143  and  _145
REMARK   63  A    between atoms: _145  and  _146
REMARK   64  A    between atoms: _145  and  _148
REMARK   65  A    between atoms: _148  and  _149
REMARK   66  A    between atoms: _152  and  _154
REMARK   67  A    between atoms: _154  and  _155
REMARK   68  A    between atoms: _157  and  _159
REMARK   69  A    between atoms: _159  and  _160
REMARK   70  A    between atoms: _162  and  _164
REMARK   71  A    between atoms: _164  and  _165
REMARK   72  A    between atoms: _164  and  _167
REMARK   73  A    between atoms: _167  and  _168
REMARK   74  A    between atoms: _174  and  _176
REMARK   75  A    between atoms: _176  and  _177
REMARK   76  A    between atoms: _176  and  _179
REMARK   77  A    between atoms: _179  and  _180
REMARK   78  A    between atoms: _183  and  _185
REMARK   79  A    between atoms: _185  and  _186
REMARK   80  A    between atoms: _185  and  _188
REMARK   81  A    between atoms: _191  and  _193
REMARK   82  A    between atoms: _193  and  _194
REMARK   83  A    between atoms: _193  and  _196
REMARK   84  A    between atoms: _196  and  _197
REMARK   85  A    between atoms: _201  and  _202
REMARK   86  A    between atoms: _207  and  _209
REMARK   87  A    between atoms: _209  and  _210
REMARK   88  A    between atoms: _209  and  _212
REMARK   89  A    between atoms: _212  and  _213
REMARK   90  A    between atoms: _217  and  _218
REMARK   91  A    between atoms: _223  and  _225
REMARK   92  A    between atoms: _225  and  _226
REMARK   93  A    between atoms: _225  and  _228
REMARK   94  A    between atoms: _231  and  _233
REMARK   95  A    between atoms: _233  and  _234
REMARK   96  A    between atoms: _233  and  _236
REMARK   97  A    between atoms: _236  and  _237
REMARK   98  A    between atoms: _242  and  _244
REMARK   99  A    between atoms: _244  and  _245
REMARK  100  A    between atoms: _244  and  _247
REMARK  101  A    between atoms: _247  and  _248
REMARK  102  A    between atoms: _251  and  _253
REMARK  103  A    between atoms: _253  and  _254
REMARK  104  A    between atoms: _253  and  _256
REMARK  105  A    between atoms: _256  and  _257
REMARK  106  A    between atoms: _260  and  _262
REMARK  107  A    between atoms: _262  and  _263
REMARK  108  A    between atoms: _265  and  _267
REMARK  109  A    between atoms: _267  and  _268
REMARK  110  A    between atoms: _267  and  _270
REMARK  111  A    between atoms: _270  and  _271
REMARK  112  A    between atoms: _271  and  _272
REMARK  113  A    between atoms: _272  and  _273
REMARK  114  A    between atoms: _282  and  _284
REMARK  115  A    between atoms: _284  and  _285
REMARK  116  A    between atoms: _284  and  _287
REMARK  117  A    between atoms: _287  and  _288
REMARK  118  A    between atoms: _293  and  _295
REMARK  119  A    between atoms: _295  and  _296
REMARK  120  A    between atoms: _295  and  _298
REMARK  121  A    between atoms: _298  and  _299
REMARK  122  A    between atoms: _299  and  _300
REMARK  123  A    between atoms: _300  and  _301
REMARK  124  A    between atoms: _310  and  _312
REMARK  125  A    between atoms: _312  and  _313
REMARK  126  A    between atoms: _312  and  _315
REMARK  127  A    between atoms: _315  and  _316
REMARK  128  A    between atoms: _319  and  _321
REMARK  129  A    between atoms: _321  and  _322
REMARK  130  A    between atoms: _321  and  _324
REMARK  131  A    between atoms: _324  and  _325
REMARK  132  A    between atoms: _328  and  _330
REMARK  133  A    between atoms: _330  and  _331
REMARK  134  A    between atoms: _330  and  _333
REMARK  135  A    between atoms: _333  and  _334
REMARK  136  A    between atoms: _337  and  _339
REMARK  137  A    between atoms: _339  and  _340
REMARK  138  A    between atoms: _339  and  _342
REMARK  139  A    between atoms: _342  and  _343
REMARK  140  A    between atoms: _346  and  _348
REMARK  141  A    between atoms: _348  and  _349
REMARK  142  A    between atoms: _351  and  _353
REMARK  143  A    between atoms: _353  and  _354
REMARK  144  A    between atoms: _357  and  _359
REMARK  145  A    between atoms: _359  and  _360
REMARK  146  A    between atoms: _359  and  _362
REMARK  147  A    between atoms: _362  and  _363
REMARK  148  A    between atoms: _366  and  _368
REMARK  149  A    between atoms: _368  and  _369
REMARK  150  A    between atoms: _368  and  _371
REMARK  151  A    between atoms: _371  and  _372
REMARK  152  A    between atoms: _377  and  _379
REMARK  153  A    between atoms: _379  and  _380
REMARK  154  A    between atoms: _379  and  _382
REMARK  155  A    between atoms: _382  and  _383
REMARK  156  A    between atoms: _386  and  _388
REMARK  157  A    between atoms: _388  and  _389
REMARK  158  A    between atoms: _388  and  _391
REMARK  159  A    between atoms: _394  and  _396
REMARK  160  A    between atoms: _396  and  _397
REMARK  161  A    between atoms: _396  and  _399
REMARK  162  A    between atoms: _399  and  _400
REMARK  163  A    between atoms: _400  and  _401
REMARK  164  A    between atoms: _401  and  _402
REMARK  165  A    between atoms: _402  and  _403
REMARK  166  A    between atoms: _407  and  _409
REMARK  167  A    between atoms: _409  and  _410
REMARK  168  A    between atoms: _409  and  _412
REMARK  169  A    between atoms: _412  and  _413
REMARK  170  A    between atoms: _413  and  _414
REMARK  171  A    between atoms: _416  and  _418
REMARK  172  A    between atoms: _418  and  _419
REMARK  173  A    between atoms: _418  and  _421
REMARK  174  A    between atoms: _421  and  _422
REMARK  175  A    between atoms: _425  and  _427
REMARK  176  A    between atoms: _427  and  _428
REMARK  177  A    between atoms: _430  and  _432
REMARK  178  A    between atoms: _432  and  _433
REMARK  179  A    between atoms: _435  and  _437
REMARK  180  A    between atoms: _437  and  _438
REMARK  181  A    between atoms: _437  and  _440
REMARK  182  A    between atoms: _440  and  _441
REMARK  183  A    between atoms: _444  and  _446
REMARK  184  A    between atoms: _446  and  _447
REMARK  185  A    between atoms: _449  and  _451
REMARK  186  A    between atoms: _451  and  _452
REMARK  187  A    between atoms: _454  and  _456
REMARK  188  A    between atoms: _456  and  _457
REMARK  189  A    between atoms: _456  and  _459
REMARK  190  A    between atoms: _459  and  _460
REMARK  191  A    between atoms: _466  and  _468
REMARK  192  A    between atoms: _468  and  _469
REMARK  193  A    between atoms: _468  and  _471
REMARK  194  A    between atoms: _471  and  _472
REMARK  195  A    between atoms: _475  and  _477
REMARK  196  A    between atoms: _477  and  _478
REMARK  197  A    between atoms: _477  and  _480
REMARK  198  A    between atoms: _483  and  _485
REMARK  199  A    between atoms: _485  and  _486
REMARK  200  A    between atoms: _485  and  _488
REMARK  201  A    between atoms: _488  and  _489
REMARK  202  A    between atoms: _492  and  _494
REMARK  203  A    between atoms: _494  and  _495
REMARK  204  A    between atoms: _494  and  _497
REMARK  205  A    between atoms: _497  and  _498
REMARK  206  A    between atoms: _502  and  _503
REMARK  207  A    between atoms: _508  and  _510
REMARK  208  A    between atoms: _510  and  _511
REMARK  209  A    between atoms: _510  and  _513
REMARK  210  A    between atoms: _516  and  _518
REMARK  211  A    between atoms: _518  and  _519
REMARK  212  A    between atoms: _518  and  _521
REMARK  213  A    between atoms: _521  and  _522
REMARK  214  A    between atoms: _527  and  _529
REMARK  215  A    between atoms: _529  and  _530
REMARK  216  A    between atoms: _529  and  _532
REMARK  217  A    between atoms: _532  and  _533
REMARK  218  A    between atoms: _536  and  _538
REMARK  219  A    between atoms: _538  and  _539
REMARK  220  A    between atoms: _541  and  _543
REMARK  221  A    between atoms: _543  and  _544
REMARK  222  A    between atoms: _543  and  _546
REMARK  223  A    between atoms: _546  and  _547
REMARK  224  A    between atoms: _547  and  _548
REMARK  225  A    between atoms: _548  and  _549
REMARK  226  A    between atoms: _558  and  _560
REMARK  227  A    between atoms: _560  and  _561
REMARK  228  A    between atoms: _560  and  _563
REMARK  229  A    between atoms: _563  and  _564
REMARK                            x       y       z     vdW  Elec       q    Type
REMARK                         _______ _______ _______ _____ _____    ______ ____
ROOT
ATOM      1  O   HOH     1      23.584  27.964  26.067  0.00  0.00    +0.000 OA
ENDROOT
TORSDOF 0
REMARK  Name = ../refined-set-2016/4hdb/4hdb_pocket.pdb
REMARK  229 active torsions:
REMARK  status: ('A' for Active; 'I' for Inactive)
REMARK    1  A    between atoms: _1  and  _3
REMARK    2  A    between atoms: _3  and  _4
REMARK    3  A    between atoms: _3  and  _6
REMARK    4  A    between atoms: _6  and  _7
REMARK    5  A    between atoms: _7  and  _8
REMARK    6  A    between atoms: _8  and  _9
REMARK    7  A    between atoms: _18  and  _20
REMARK    8  A    between atoms: _20  and  _21
REMARK    9  A    between atoms: _20  and  _23
REMARK   10  A    between atoms: _23  and  _24
REMARK   11  A    between atoms: _27  and  _29
REMARK   12  A    between atoms: _29  and  _30
REMARK   13  A    between atoms: _29  and  _32
REMARK   14  A    between atoms: _32  and  _33
REMARK   15  A    between atoms: _36  and  _38
REMARK   16  A    between atoms: _38  and  _39
REMARK   17  A    between atoms: _38  and  _41
REMARK   18  A    between atoms: _41  and  _42
REMARK   19  A    between atoms: _45  and  _47
REMARK   20  A    between atoms: _47  and  _48
REMARK   21  A    between atoms: _47  and  _50
REMARK   22  A    between atoms: _50  and  _51
REMARK   23  A    between atoms: _54  and  _56
REMARK   24  A    between atoms: _56  and  _57
REMARK   25  A    between atoms: _59  and  _61
REMARK   26  A    between atoms: _61  and  _62
REMARK   27  A    between atoms: _65  and  _67
REMARK   28  A    between atoms: _67  and  _68
REMARK   29  A    between atoms: _67  and  _70
REMARK   30  A    between atoms: _70  and  _71
REMARK   31  A    between atoms: _74  and  _76
REMARK   32  A    between atoms: _76  and  _77
REMARK   33  A    between atoms: _76  and  _79
REMARK   34  A    between atoms: _79  and  _80
REMARK   35  A    between atoms: _85  and  _87
REMARK   36  A    between atoms: _87  and  _88
REMARK   37  A    between atoms: _87  and  _90
REMARK   38  A    between atoms: _90  and  _91
REMARK   39  A    between atoms: _94  and  _96
REMARK   40  A    between atoms: _96  and  _97
REMARK   41  A    between atoms: _96  and  _99
REMARK   42  A    between atoms: _102  and  _104
REMARK   43  A    between atoms: _104  and  _105
REMARK   44  A    between atoms: _104  and  _107
REMARK   45  A    between atoms: _107  and  _108
REMARK   46  A    between atoms: _108  and  _109
REMARK   47  A    between atoms: _109  and  _110
REMARK   48  A    between atoms: _110  and  _111
REMARK   49  A    between atoms: _115  and  _117
REMARK   50  A    between atoms: _117  and  _118
REMARK   51  A    between atoms: _117  and  _120
REMARK   52  A    between atoms: _120  and  _121
REMARK   53  A    between atoms: _121  and  _122
REMARK   54  A    between atoms: _124  and  _126
REMARK   55  A    between atoms: _126  and  _127
REMARK   56  A    between atoms: _126  and  _129
REMARK   57  A    between atoms: _129  and  _130
REMARK   58  A    between atoms: _133  and  _135
REMARK   59  A    between atoms: _135  and  _136
REMARK   60  A    between atoms: _138  and  _140
REMARK   61  A    between atoms: _140  and  _141
REMARK   62  A    between atoms: _143  and  _145
REMARK   63  A    between atoms: _145  and  _146
REMARK   64  A    between atoms: _145  and  _148
REMARK   65  A    between atoms: _148  and  _149
REMARK   66  A    between atoms: _152  and  _154
REMARK   67  A    between atoms: _154  and  _155
REMARK   68  A    between atoms: _157  and  _159
REMARK   69  A    between atoms: _159  and  _160
REMARK   70  A    between atoms: _162  and  _164
REMARK   71  A    between atoms: _164  and  _165
REMARK   72  A    between atoms: _164  and  _167
REMARK   73  A    between atoms: _167  and  _168
REMARK   74  A    between atoms: _174  and  _176
REMARK   75  A    between atoms: _176  and  _177
REMARK   76  A    between atoms: _176  and  _179
REMARK   77  A    between atoms: _179  and  _180
REMARK   78  A    between atoms: _183  and  _185
REMARK   79  A    between atoms: _185  and  _186
REMARK   80  A    between atoms: _185  and  _188
REMARK   81  A    between atoms: _191  and  _193
REMARK   82  A    between atoms: _193  and  _194
REMARK   83  A    between atoms: _193  and  _196
REMARK   84  A    between atoms: _196  and  _197
REMARK   85  A    between atoms: _201  and  _202
REMARK   86  A    between atoms: _207  and  _209
REMARK   87  A    between atoms: _209  and  _210
REMARK   88  A    between atoms: _209  and  _212
REMARK   89  A    between atoms: _212  and  _213
REMARK   90  A    between atoms: _217  and  _218
REMARK   91  A    between atoms: _223  and  _225
REMARK   92  A    between atoms: _225  and  _226
REMARK   93  A    between atoms: _225  and  _228
REMARK   94  A    between atoms: _231  and  _233
REMARK   95  A    between atoms: _233  and  _234
REMARK   96  A    between atoms: _233  and  _236
REMARK   97  A    between atoms: _236  and  _237
REMARK   98  A    between atoms: _242  and  _244
REMARK   99  A    between atoms: _244  and  _245
REMARK  100  A    between atoms: _244  and  _247
REMARK  101  A    between atoms: _247  and  _248
REMARK  102  A    between atoms: _251  and  _253
REMARK  103  A    between atoms: _253  and  _254
REMARK  104  A    between atoms: _253  and  _256
REMARK  105  A    between atoms: _256  and  _257
REMARK  106  A    between atoms: _260  and  _262
REMARK  107  A    between atoms: _262  and  _263
REMARK  108  A    between atoms: _265  and  _267
REMARK  109  A    between atoms: _267  and  _268
REMARK  110  A    between atoms: _267  and  _270
REMARK  111  A    between atoms: _270  and  _271
REMARK  112  A    between atoms: _271  and  _272
REMARK  113  A    between atoms: _272  and  _273
REMARK  114  A    between atoms: _282  and  _284
REMARK  115  A    between atoms: _284  and  _285
REMARK  116  A    between atoms: _284  and  _287
REMARK  117  A    between atoms: _287  and  _288
REMARK  118  A    between atoms: _293  and  _295
REMARK  119  A    between atoms: _295  and  _296
REMARK  120  A    between atoms: _295  and  _298
REMARK  121  A    between atoms: _298  and  _299
REMARK  122  A    between atoms: _299  and  _300
REMARK  123  A    between atoms: _300  and  _301
REMARK  124  A    between atoms: _310  and  _312
REMARK  125  A    between atoms: _312  and  _313
REMARK  126  A    between atoms: _312  and  _315
REMARK  127  A    between atoms: _315  and  _316
REMARK  128  A    between atoms: _319  and  _321
REMARK  129  A    between atoms: _321  and  _322
REMARK  130  A    between atoms: _321  and  _324
REMARK  131  A    between atoms: _324  and  _325
REMARK  132  A    between atoms: _328  and  _330
REMARK  133  A    between atoms: _330  and  _331
REMARK  134  A    between atoms: _330  and  _333
REMARK  135  A    between atoms: _333  and  _334
REMARK  136  A    between atoms: _337  and  _339
REMARK  137  A    between atoms: _339  and  _340
REMARK  138  A    between atoms: _339  and  _342
REMARK  139  A    between atoms: _342  and  _343
REMARK  140  A    between atoms: _346  and  _348
REMARK  141  A    between atoms: _348  and  _349
REMARK  142  A    between atoms: _351  and  _353
REMARK  143  A    between atoms: _353  and  _354
REMARK  144  A    between atoms: _357  and  _359
REMARK  145  A    between atoms: _359  and  _360
REMARK  146  A    between atoms: _359  and  _362
REMARK  147  A    between atoms: _362  and  _363
REMARK  148  A    between atoms: _366  and  _368
REMARK  149  A    between atoms: _368  and  _369
REMARK  150  A    between atoms: _368  and  _371
REMARK  151  A    between atoms: _371  and  _372
REMARK  152  A    between atoms: _377  and  _379
REMARK  153  A    between atoms: _379  and  _380
REMARK  154  A    between atoms: _379  and  _382
REMARK  155  A    between atoms: _382  and  _383
REMARK  156  A    between atoms: _386  and  _388
REMARK  157  A    between atoms: _388  and  _389
REMARK  158  A    between atoms: _388  and  _391
REMARK  159  A    between atoms: _394  and  _396
REMARK  160  A    between atoms: _396  and  _397
REMARK  161  A    between atoms: _396  and  _399
REMARK  162  A    between atoms: _399  and  _400
REMARK  163  A    between atoms: _400  and  _401
REMARK  164  A    between atoms: _401  and  _402
REMARK  165  A    between atoms: _402  and  _403
REMARK  166  A    between atoms: _407  and  _409
REMARK  167  A    between atoms: _409  and  _410
REMARK  168  A    between atoms: _409  and  _412
REMARK  169  A    between atoms: _412  and  _413
REMARK  170  A    between atoms: _413  and  _414
REMARK  171  A    between atoms: _416  and  _418
REMARK  172  A    between atoms: _418  and  _419
REMARK  173  A    between atoms: _418  and  _421
REMARK  174  A    between atoms: _421  and  _422
REMARK  175  A    between atoms: _425  and  _427
REMARK  176  A    between atoms: _427  and  _428
REMARK  177  A    between atoms: _430  and  _432
REMARK  178  A    between atoms: _432  and  _433
REMARK  179  A    between atoms: _435  and  _437
REMARK  180  A    between atoms: _437  and  _438
REMARK  181  A    between atoms: _437  and  _440
REMARK  182  A    between atoms: _440  and  _441
REMARK  183  A    between atoms: _444  and  _446
REMARK  184  A    between atoms: _446  and  _447
REMARK  185  A    between atoms: _449  and  _451
REMARK  186  A    between atoms: _451  and  _452
REMARK  187  A    between atoms: _454  and  _456
REMARK  188  A    between atoms: _456  and  _457
REMARK  189  A    between atoms: _456  and  _459
REMARK  190  A    between atoms: _459  and  _460
REMARK  191  A    between atoms: _466  and  _468
REMARK  192  A    between atoms: _468  and  _469
REMARK  193  A    between atoms: _468  and  _471
REMARK  194  A    between atoms: _471  and  _472
REMARK  195  A    between atoms: _475  and  _477
REMARK  196  A    between atoms: _477  and  _478
REMARK  197  A    between atoms: _477  and  _480
REMARK  198  A    between atoms: _483  and  _485
REMARK  199  A    between atoms: _485  and  _486
REMARK  200  A    between atoms: _485  and  _488
REMARK  201  A    between atoms: _488  and  _489
REMARK  202  A    between atoms: _492  and  _494
REMARK  203  A    between atoms: _494  and  _495
REMARK  204  A    between atoms: _494  and  _497
REMARK  205  A    between atoms: _497  and  _498
REMARK  206  A    between atoms: _502  and  _503
REMARK  207  A    between atoms: _508  and  _510
REMARK  208  A    between atoms: _510  and  _511
REMARK  209  A    between atoms: _510  and  _513
REMARK  210  A    between atoms: _516  and  _518
REMARK  211  A    between atoms: _518  and  _519
REMARK  212  A    between atoms: _518  and  _521
REMARK  213  A    between atoms: _521  and  _522
REMARK  214  A    between atoms: _527  and  _529
REMARK  215  A    between atoms: _529  and  _530
REMARK  216  A    between atoms: _529  and  _532
REMARK  217  A    between atoms: _532  and  _533
REMARK  218  A    between atoms: _536  and  _538
REMARK  219  A    between atoms: _538  and  _539
REMARK  220  A    between atoms: _541  and  _543
REMARK  221  A    between atoms: _543  and  _544
REMARK  222  A    between atoms: _543  and  _546
REMARK  223  A    between atoms: _546  and  _547
REMARK  224  A    between atoms: _547  and  _548
REMARK  225  A    between atoms: _548  and  _549
REMARK  226  A    between atoms: _558  and  _560
REMARK  227  A    between atoms: _560  and  _561
REMARK  228  A    between atoms: _560  and  _563
REMARK  229  A    between atoms: _563  and  _564
REMARK                            x       y       z     vdW  Elec       q    Type
REMARK                         _______ _______ _______ _____ _____    ______ ____
ROOT
ATOM      1  O   HOH     1      19.896  18.087   9.042  0.00  0.00    +0.000 OA
ENDROOT
TORSDOF 0
REMARK  Name = ../refined-set-2016/4hdb/4hdb_pocket.pdb
REMARK  229 active torsions:
REMARK  status: ('A' for Active; 'I' for Inactive)
REMARK    1  A    between atoms: _1  and  _3
REMARK    2  A    between atoms: _3  and  _4
REMARK    3  A    between atoms: _3  and  _6
REMARK    4  A    between atoms: _6  and  _7
REMARK    5  A    between atoms: _7  and  _8
REMARK    6  A    between atoms: _8  and  _9
REMARK    7  A    between atoms: _18  and  _20
REMARK    8  A    between atoms: _20  and  _21
REMARK    9  A    between atoms: _20  and  _23
REMARK   10  A    between atoms: _23  and  _24
REMARK   11  A    between atoms: _27  and  _29
REMARK   12  A    between atoms: _29  and  _30
REMARK   13  A    between atoms: _29  and  _32
REMARK   14  A    between atoms: _32  and  _33
REMARK   15  A    between atoms: _36  and  _38
REMARK   16  A    between atoms: _38  and  _39
REMARK   17  A    between atoms: _38  and  _41
REMARK   18  A    between atoms: _41  and  _42
REMARK   19  A    between atoms: _45  and  _47
REMARK   20  A    between atoms: _47  and  _48
REMARK   21  A    between atoms: _47  and  _50
REMARK   22  A    between atoms: _50  and  _51
REMARK   23  A    between atoms: _54  and  _56
REMARK   24  A    between atoms: _56  and  _57
REMARK   25  A    between atoms: _59  and  _61
REMARK   26  A    between atoms: _61  and  _62
REMARK   27  A    between atoms: _65  and  _67
REMARK   28  A    between atoms: _67  and  _68
REMARK   29  A    between atoms: _67  and  _70
REMARK   30  A    between atoms: _70  and  _71
REMARK   31  A    between atoms: _74  and  _76
REMARK   32  A    between atoms: _76  and  _77
REMARK   33  A    between atoms: _76  and  _79
REMARK   34  A    between atoms: _79  and  _80
REMARK   35  A    between atoms: _85  and  _87
REMARK   36  A    between atoms: _87  and  _88
REMARK   37  A    between atoms: _87  and  _90
REMARK   38  A    between atoms: _90  and  _91
REMARK   39  A    between atoms: _94  and  _96
REMARK   40  A    between atoms: _96  and  _97
REMARK   41  A    between atoms: _96  and  _99
REMARK   42  A    between atoms: _102  and  _104
REMARK   43  A    between atoms: _104  and  _105
REMARK   44  A    between atoms: _104  and  _107
REMARK   45  A    between atoms: _107  and  _108
REMARK   46  A    between atoms: _108  and  _109
REMARK   47  A    between atoms: _109  and  _110
REMARK   48  A    between atoms: _110  and  _111
REMARK   49  A    between atoms: _115  and  _117
REMARK   50  A    between atoms: _117  and  _118
REMARK   51  A    between atoms: _117  and  _120
REMARK   52  A    between atoms: _120  and  _121
REMARK   53  A    between atoms: _121  and  _122
REMARK   54  A    between atoms: _124  and  _126
REMARK   55  A    between atoms: _126  and  _127
REMARK   56  A    between atoms: _126  and  _129
REMARK   57  A    between atoms: _129  and  _130
REMARK   58  A    between atoms: _133  and  _135
REMARK   59  A    between atoms: _135  and  _136
REMARK   60  A    between atoms: _138  and  _140
REMARK   61  A    between atoms: _140  and  _141
REMARK   62  A    between atoms: _143  and  _145
REMARK   63  A    between atoms: _145  and  _146
REMARK   64  A    between atoms: _145  and  _148
REMARK   65  A    between atoms: _148  and  _149
REMARK   66  A    between atoms: _152  and  _154
REMARK   67  A    between atoms: _154  and  _155
REMARK   68  A    between atoms: _157  and  _159
REMARK   69  A    between atoms: _159  and  _160
REMARK   70  A    between atoms: _162  and  _164
REMARK   71  A    between atoms: _164  and  _165
REMARK   72  A    between atoms: _164  and  _167
REMARK   73  A    between atoms: _167  and  _168
REMARK   74  A    between atoms: _174  and  _176
REMARK   75  A    between atoms: _176  and  _177
REMARK   76  A    between atoms: _176  and  _179
REMARK   77  A    between atoms: _179  and  _180
REMARK   78  A    between atoms: _183  and  _185
REMARK   79  A    between atoms: _185  and  _186
REMARK   80  A    between atoms: _185  and  _188
REMARK   81  A    between atoms: _191  and  _193
REMARK   82  A    between atoms: _193  and  _194
REMARK   83  A    between atoms: _193  and  _196
REMARK   84  A    between atoms: _196  and  _197
REMARK   85  A    between atoms: _201  and  _202
REMARK   86  A    between atoms: _207  and  _209
REMARK   87  A    between atoms: _209  and  _210
REMARK   88  A    between atoms: _209  and  _212
REMARK   89  A    between atoms: _212  and  _213
REMARK   90  A    between atoms: _217  and  _218
REMARK   91  A    between atoms: _223  and  _225
REMARK   92  A    between atoms: _225  and  _226
REMARK   93  A    between atoms: _225  and  _228
REMARK   94  A    between atoms: _231  and  _233
REMARK   95  A    between atoms: _233  and  _234
REMARK   96  A    between atoms: _233  and  _236
REMARK   97  A    between atoms: _236  and  _237
REMARK   98  A    between atoms: _242  and  _244
REMARK   99  A    between atoms: _244  and  _245
REMARK  100  A    between atoms: _244  and  _247
REMARK  101  A    between atoms: _247  and  _248
REMARK  102  A    between atoms: _251  and  _253
REMARK  103  A    between atoms: _253  and  _254
REMARK  104  A    between atoms: _253  and  _256
REMARK  105  A    between atoms: _256  and  _257
REMARK  106  A    between atoms: _260  and  _262
REMARK  107  A    between atoms: _262  and  _263
REMARK  108  A    between atoms: _265  and  _267
REMARK  109  A    between atoms: _267  and  _268
REMARK  110  A    between atoms: _267  and  _270
REMARK  111  A    between atoms: _270  and  _271
REMARK  112  A    between atoms: _271  and  _272
REMARK  113  A    between atoms: _272  and  _273
REMARK  114  A    between atoms: _282  and  _284
REMARK  115  A    between atoms: _284  and  _285
REMARK  116  A    between atoms: _284  and  _287
REMARK  117  A    between atoms: _287  and  _288
REMARK  118  A    between atoms: _293  and  _295
REMARK  119  A    between atoms: _295  and  _296
REMARK  120  A    between atoms: _295  and  _298
REMARK  121  A    between atoms: _298  and  _299
REMARK  122  A    between atoms: _299  and  _300
REMARK  123  A    between atoms: _300  and  _301
REMARK  124  A    between atoms: _310  and  _312
REMARK  125  A    between atoms: _312  and  _313
REMARK  126  A    between atoms: _312  and  _315
REMARK  127  A    between atoms: _315  and  _316
REMARK  128  A    between atoms: _319  and  _321
REMARK  129  A    between atoms: _321  and  _322
REMARK  130  A    between atoms: _321  and  _324
REMARK  131  A    between atoms: _324  and  _325
REMARK  132  A    between atoms: _328  and  _330
REMARK  133  A    between atoms: _330  and  _331
REMARK  134  A    between atoms: _330  and  _333
REMARK  135  A    between atoms: _333  and  _334
REMARK  136  A    between atoms: _337  and  _339
REMARK  137  A    between atoms: _339  and  _340
REMARK  138  A    between atoms: _339  and  _342
REMARK  139  A    between atoms: _342  and  _343
REMARK  140  A    between atoms: _346  and  _348
REMARK  141  A    between atoms: _348  and  _349
REMARK  142  A    between atoms: _351  and  _353
REMARK  143  A    between atoms: _353  and  _354
REMARK  144  A    between atoms: _357  and  _359
REMARK  145  A    between atoms: _359  and  _360
REMARK  146  A    between atoms: _359  and  _362
REMARK  147  A    between atoms: _362  and  _363
REMARK  148  A    between atoms: _366  and  _368
REMARK  149  A    between atoms: _368  and  _369
REMARK  150  A    between atoms: _368  and  _371
REMARK  151  A    between atoms: _371  and  _372
REMARK  152  A    between atoms: _377  and  _379
REMARK  153  A    between atoms: _379  and  _380
REMARK  154  A    between atoms: _379  and  _382
REMARK  155  A    between atoms: _382  and  _383
REMARK  156  A    between atoms: _386  and  _388
REMARK  157  A    between atoms: _388  and  _389
REMARK  158  A    between atoms: _388  and  _391
REMARK  159  A    between atoms: _394  and  _396
REMARK  160  A    between atoms: _396  and  _397
REMARK  161  A    between atoms: _396  and  _399
REMARK  162  A    between atoms: _399  and  _400
REMARK  163  A    between atoms: _400  and  _401
REMARK  164  A    between atoms: _401  and  _402
REMARK  165  A    between atoms: _402  and  _403
REMARK  166  A    between atoms: _407  and  _409
REMARK  167  A    between atoms: _409  and  _410
REMARK  168  A    between atoms: _409  and  _412
REMARK  169  A    between atoms: _412  and  _413
REMARK  170  A    between atoms: _413  and  _414
REMARK  171  A    between atoms: _416  and  _418
REMARK  172  A    between atoms: _418  and  _419
REMARK  173  A    between atoms: _418  and  _421
REMARK  174  A    between atoms: _421  and  _422
REMARK  175  A    between atoms: _425  and  _427
REMARK  176  A    between atoms: _427  and  _428
REMARK  177  A    between atoms: _430  and  _432
REMARK  178  A    between atoms: _432  and  _433
REMARK  179  A    between atoms: _435  and  _437
REMARK  180  A    between atoms: _437  and  _438
REMARK  181  A    between atoms: _437  and  _440
REMARK  182  A    between atoms: _440  and  _441
REMARK  183  A    between atoms: _444  and  _446
REMARK  184  A    between atoms: _446  and  _447
REMARK  185  A    between atoms: _449  and  _451
REMARK  186  A    between atoms: _451  and  _452
REMARK  187  A    between atoms: _454  and  _456
REMARK  188  A    between atoms: _456  and  _457
REMARK  189  A    between atoms: _456  and  _459
REMARK  190  A    between atoms: _459  and  _460
REMARK  191  A    between atoms: _466  and  _468
REMARK  192  A    between atoms: _468  and  _469
REMARK  193  A    between atoms: _468  and  _471
REMARK  194  A    between atoms: _471  and  _472
REMARK  195  A    between atoms: _475  and  _477
REMARK  196  A    between atoms: _477  and  _478
REMARK  197  A    between atoms: _477  and  _480
REMARK  198  A    between atoms: _483  and  _485
REMARK  199  A    between atoms: _485  and  _486
REMARK  200  A    between atoms: _485  and  _488
REMARK  201  A    between atoms: _488  and  _489
REMARK  202  A    between atoms: _492  and  _494
REMARK  203  A    between atoms: _494  and  _495
REMARK  204  A    between atoms: _494  and  _497
REMARK  205  A    between atoms: _497  and  _498
REMARK  206  A    between atoms: _502  and  _503
REMARK  207  A    between atoms: _508  and  _510
REMARK  208  A    between atoms: _510  and  _511
REMARK  209  A    between atoms: _510  and  _513
REMARK  210  A    between atoms: _516  and  _518
REMARK  211  A    between atoms: _518  and  _519
REMARK  212  A    between atoms: _518  and  _521
REMARK  213  A    between atoms: _521  and  _522
REMARK  214  A    between atoms: _527  and  _529
REMARK  215  A    between atoms: _529  and  _530
REMARK  216  A    between atoms: _529  and  _532
REMARK  217  A    between atoms: _532  and  _533
REMARK  218  A    between atoms: _536  and  _538
REMARK  219  A    between atoms: _538  and  _539
REMARK  220  A    between atoms: _541  and  _543
REMARK  221  A    between atoms: _543  and  _544
REMARK  222  A    between atoms: _543  and  _546
REMARK  223  A    between atoms: _546  and  _547
REMARK  224  A    between atoms: _547  and  _548
REMARK  225  A    between atoms: _548  and  _549
REMARK  226  A    between atoms: _558  and  _560
REMARK  227  A    between atoms: _560  and  _561
REMARK  228  A    between atoms: _560  and  _563
REMARK  229  A    between atoms: _563  and  _564
REMARK                            x       y       z     vdW  Elec       q    Type
REMARK                         _______ _______ _______ _____ _____    ______ ____
ROOT
ATOM      1  O   HOH     1      13.049  18.687  13.226  0.00  0.00    +0.000 OA
ENDROOT
TORSDOF 0
REMARK  Name = ../refined-set-2016/4hdb/4hdb_pocket.pdb
REMARK  229 active torsions:
REMARK  status: ('A' for Active; 'I' for Inactive)
REMARK    1  A    between atoms: _1  and  _3
REMARK    2  A    between atoms: _3  and  _4
REMARK    3  A    between atoms: _3  and  _6
REMARK    4  A    between atoms: _6  and  _7
REMARK    5  A    between atoms: _7  and  _8
REMARK    6  A    between atoms: _8  and  _9
REMARK    7  A    between atoms: _18  and  _20
REMARK    8  A    between atoms: _20  and  _21
REMARK    9  A    between atoms: _20  and  _23
REMARK   10  A    between atoms: _23  and  _24
REMARK   11  A    between atoms: _27  and  _29
REMARK   12  A    between atoms: _29  and  _30
REMARK   13  A    between atoms: _29  and  _32
REMARK   14  A    between atoms: _32  and  _33
REMARK   15  A    between atoms: _36  and  _38
REMARK   16  A    between atoms: _38  and  _39
REMARK   17  A    between atoms: _38  and  _41
REMARK   18  A    between atoms: _41  and  _42
REMARK   19  A    between atoms: _45  and  _47
REMARK   20  A    between atoms: _47  and  _48
REMARK   21  A    between atoms: _47  and  _50
REMARK   22  A    between atoms: _50  and  _51
REMARK   23  A    between atoms: _54  and  _56
REMARK   24  A    between atoms: _56  and  _57
REMARK   25  A    between atoms: _59  and  _61
REMARK   26  A    between atoms: _61  and  _62
REMARK   27  A    between atoms: _65  and  _67
REMARK   28  A    between atoms: _67  and  _68
REMARK   29  A    between atoms: _67  and  _70
REMARK   30  A    between atoms: _70  and  _71
REMARK   31  A    between atoms: _74  and  _76
REMARK   32  A    between atoms: _76  and  _77
REMARK   33  A    between atoms: _76  and  _79
REMARK   34  A    between atoms: _79  and  _80
REMARK   35  A    between atoms: _85  and  _87
REMARK   36  A    between atoms: _87  and  _88
REMARK   37  A    between atoms: _87  and  _90
REMARK   38  A    between atoms: _90  and  _91
REMARK   39  A    between atoms: _94  and  _96
REMARK   40  A    between atoms: _96  and  _97
REMARK   41  A    between atoms: _96  and  _99
REMARK   42  A    between atoms: _102  and  _104
REMARK   43  A    between atoms: _104  and  _105
REMARK   44  A    between atoms: _104  and  _107
REMARK   45  A    between atoms: _107  and  _108
REMARK   46  A    between atoms: _108  and  _109
REMARK   47  A    between atoms: _109  and  _110
REMARK   48  A    between atoms: _110  and  _111
REMARK   49  A    between atoms: _115  and  _117
REMARK   50  A    between atoms: _117  and  _118
REMARK   51  A    between atoms: _117  and  _120
REMARK   52  A    between atoms: _120  and  _121
REMARK   53  A    between atoms: _121  and  _122
REMARK   54  A    between atoms: _124  and  _126
REMARK   55  A    between atoms: _126  and  _127
REMARK   56  A    between atoms: _126  and  _129
REMARK   57  A    between atoms: _129  and  _130
REMARK   58  A    between atoms: _133  and  _135
REMARK   59  A    between atoms: _135  and  _136
REMARK   60  A    between atoms: _138  and  _140
REMARK   61  A    between atoms: _140  and  _141
REMARK   62  A    between atoms: _143  and  _145
REMARK   63  A    between atoms: _145  and  _146
REMARK   64  A    between atoms: _145  and  _148
REMARK   65  A    between atoms: _148  and  _149
REMARK   66  A    between atoms: _152  and  _154
REMARK   67  A    between atoms: _154  and  _155
REMARK   68  A    between atoms: _157  and  _159
REMARK   69  A    between atoms: _159  and  _160
REMARK   70  A    between atoms: _162  and  _164
REMARK   71  A    between atoms: _164  and  _165
REMARK   72  A    between atoms: _164  and  _167
REMARK   73  A    between atoms: _167  and  _168
REMARK   74  A    between atoms: _174  and  _176
REMARK   75  A    between atoms: _176  and  _177
REMARK   76  A    between atoms: _176  and  _179
REMARK   77  A    between atoms: _179  and  _180
REMARK   78  A    between atoms: _183  and  _185
REMARK   79  A    between atoms: _185  and  _186
REMARK   80  A    between atoms: _185  and  _188
REMARK   81  A    between atoms: _191  and  _193
REMARK   82  A    between atoms: _193  and  _194
REMARK   83  A    between atoms: _193  and  _196
REMARK   84  A    between atoms: _196  and  _197
REMARK   85  A    between atoms: _201  and  _202
REMARK   86  A    between atoms: _207  and  _209
REMARK   87  A    between atoms: _209  and  _210
REMARK   88  A    between atoms: _209  and  _212
REMARK   89  A    between atoms: _212  and  _213
REMARK   90  A    between atoms: _217  and  _218
REMARK   91  A    between atoms: _223  and  _225
REMARK   92  A    between atoms: _225  and  _226
REMARK   93  A    between atoms: _225  and  _228
REMARK   94  A    between atoms: _231  and  _233
REMARK   95  A    between atoms: _233  and  _234
REMARK   96  A    between atoms: _233  and  _236
REMARK   97  A    between atoms: _236  and  _237
REMARK   98  A    between atoms: _242  and  _244
REMARK   99  A    between atoms: _244  and  _245
REMARK  100  A    between atoms: _244  and  _247
REMARK  101  A    between atoms: _247  and  _248
REMARK  102  A    between atoms: _251  and  _253
REMARK  103  A    between atoms: _253  and  _254
REMARK  104  A    between atoms: _253  and  _256
REMARK  105  A    between atoms: _256  and  _257
REMARK  106  A    between atoms: _260  and  _262
REMARK  107  A    between atoms: _262  and  _263
REMARK  108  A    between atoms: _265  and  _267
REMARK  109  A    between atoms: _267  and  _268
REMARK  110  A    between atoms: _267  and  _270
REMARK  111  A    between atoms: _270  and  _271
REMARK  112  A    between atoms: _271  and  _272
REMARK  113  A    between atoms: _272  and  _273
REMARK  114  A    between atoms: _282  and  _284
REMARK  115  A    between atoms: _284  and  _285
REMARK  116  A    between atoms: _284  and  _287
REMARK  117  A    between atoms: _287  and  _288
REMARK  118  A    between atoms: _293  and  _295
REMARK  119  A    between atoms: _295  and  _296
REMARK  120  A    between atoms: _295  and  _298
REMARK  121  A    between atoms: _298  and  _299
REMARK  122  A    between atoms: _299  and  _300
REMARK  123  A    between atoms: _300  and  _301
REMARK  124  A    between atoms: _310  and  _312
REMARK  125  A    between atoms: _312  and  _313
REMARK  126  A    between atoms: _312  and  _315
REMARK  127  A    between atoms: _315  and  _316
REMARK  128  A    between atoms: _319  and  _321
REMARK  129  A    between atoms: _321  and  _322
REMARK  130  A    between atoms: _321  and  _324
REMARK  131  A    between atoms: _324  and  _325
REMARK  132  A    between atoms: _328  and  _330
REMARK  133  A    between atoms: _330  and  _331
REMARK  134  A    between atoms: _330  and  _333
REMARK  135  A    between atoms: _333  and  _334
REMARK  136  A    between atoms: _337  and  _339
REMARK  137  A    between atoms: _339  and  _340
REMARK  138  A    between atoms: _339  and  _342
REMARK  139  A    between atoms: _342  and  _343
REMARK  140  A    between atoms: _346  and  _348
REMARK  141  A    between atoms: _348  and  _349
REMARK  142  A    between atoms: _351  and  _353
REMARK  143  A    between atoms: _353  and  _354
REMARK  144  A    between atoms: _357  and  _359
REMARK  145  A    between atoms: _359  and  _360
REMARK  146  A    between atoms: _359  and  _362
REMARK  147  A    between atoms: _362  and  _363
REMARK  148  A    between atoms: _366  and  _368
REMARK  149  A    between atoms: _368  and  _369
REMARK  150  A    between atoms: _368  and  _371
REMARK  151  A    between atoms: _371  and  _372
REMARK  152  A    between atoms: _377  and  _379
REMARK  153  A    between atoms: _379  and  _380
REMARK  154  A    between atoms: _379  and  _382
REMARK  155  A    between atoms: _382  and  _383
REMARK  156  A    between atoms: _386  and  _388
REMARK  157  A    between atoms: _388  and  _389
REMARK  158  A    between atoms: _388  and  _391
REMARK  159  A    between atoms: _394  and  _396
REMARK  160  A    between atoms: _396  and  _397
REMARK  161  A    between atoms: _396  and  _399
REMARK  162  A    between atoms: _399  and  _400
REMARK  163  A    between atoms: _400  and  _401
REMARK  164  A    between atoms: _401  and  _402
REMARK  165  A    between atoms: _402  and  _403
REMARK  166  A    between atoms: _407  and  _409
REMARK  167  A    between atoms: _409  and  _410
REMARK  168  A    between atoms: _409  and  _412
REMARK  169  A    between atoms: _412  and  _413
REMARK  170  A    between atoms: _413  and  _414
REMARK  171  A    between atoms: _416  and  _418
REMARK  172  A    between atoms: _418  and  _419
REMARK  173  A    between atoms: _418  and  _421
REMARK  174  A    between atoms: _421  and  _422
REMARK  175  A    between atoms: _425  and  _427
REMARK  176  A    between atoms: _427  and  _428
REMARK  177  A    between atoms: _430  and  _432
REMARK  178  A    between atoms: _432  and  _433
REMARK  179  A    between atoms: _435  and  _437
REMARK  180  A    between atoms: _437  and  _438
REMARK  181  A    between atoms: _437  and  _440
REMARK  182  A    between atoms: _440  and  _441
REMARK  183  A    between atoms: _444  and  _446
REMARK  184  A    between atoms: _446  and  _447
REMARK  185  A    between atoms: _449  and  _451
REMARK  186  A    between atoms: _451  and  _452
REMARK  187  A    between atoms: _454  and  _456
REMARK  188  A    between atoms: _456  and  _457
REMARK  189  A    between atoms: _456  and  _459
REMARK  190  A    between atoms: _459  and  _460
REMARK  191  A    between atoms: _466  and  _468
REMARK  192  A    between atoms: _468  and  _469
REMARK  193  A    between atoms: _468  and  _471
REMARK  194  A    between atoms: _471  and  _472
REMARK  195  A    between atoms: _475  and  _477
REMARK  196  A    between atoms: _477  and  _478
REMARK  197  A    between atoms: _477  and  _480
REMARK  198  A    between atoms: _483  and  _485
REMARK  199  A    between atoms: _485  and  _486
REMARK  200  A    between atoms: _485  and  _488
REMARK  201  A    between atoms: _488  and  _489
REMARK  202  A    between atoms: _492  and  _494
REMARK  203  A    between atoms: _494  and  _495
REMARK  204  A    between atoms: _494  and  _497
REMARK  205  A    between atoms: _497  and  _498
REMARK  206  A    between atoms: _502  and  _503
REMARK  207  A    between atoms: _508  and  _510
REMARK  208  A    between atoms: _510  and  _511
REMARK  209  A    between atoms: _510  and  _513
REMARK  210  A    between atoms: _516  and  _518
REMARK  211  A    between atoms: _518  and  _519
REMARK  212  A    between atoms: _518  and  _521
REMARK  213  A    between atoms: _521  and  _522
REMARK  214  A    between atoms: _527  and  _529
REMARK  215  A    between atoms: _529  and  _530
REMARK  216  A    between atoms: _529  and  _532
REMARK  217  A    between atoms: _532  and  _533
REMARK  218  A    between atoms: _536  and  _538
REMARK  219  A    between atoms: _538  and  _539
REMARK  220  A    between atoms: _541  and  _543
REMARK  221  A    between atoms: _543  and  _544
REMARK  222  A    between atoms: _543  and  _546
REMARK  223  A    between atoms: _546  and  _547
REMARK  224  A    between atoms: _547  and  _548
REMARK  225  A    between atoms: _548  and  _549
REMARK  226  A    between atoms: _558  and  _560
REMARK  227  A    between atoms: _560  and  _561
REMARK  228  A    between atoms: _560  and  _563
REMARK  229  A    between atoms: _563  and  _564
REMARK                            x       y       z     vdW  Elec       q    Type
REMARK                         _______ _______ _______ _____ _____    ______ ____
ROOT
ATOM      1  O   HOH     1      27.200  28.201  20.198  0.00  0.00    +0.000 OA
ENDROOT
TORSDOF 0
