REMARK  Name = ../refined-set-2016/1pvn/1pvn_pocket.pdb
REMARK  246 active torsions:
REMARK  status: ('A' for Active; 'I' for Inactive)
REMARK    1  A    between atoms: _1  and  _3
REMARK    2  A    between atoms: _3  and  _4
REMARK    3  A    between atoms: _3  and  _6
REMARK    4  A    between atoms: _9  and  _11
REMARK    5  A    between atoms: _11  and  _12
REMARK    6  A    between atoms: _11  and  _14
REMARK    7  A    between atoms: _14  and  _15
REMARK    8  A    between atoms: _17  and  _19
REMARK    9  A    between atoms: _19  and  _20
REMARK   10  A    between atoms: _23  and  _25
REMARK   11  A    between atoms: _25  and  _26
REMARK   12  A    between atoms: _25  and  _28
REMARK   13  A    between atoms: _28  and  _29
REMARK   14  A    between atoms: _32  and  _34
REMARK   15  A    between atoms: _34  and  _35
REMARK   16  A    between atoms: _34  and  _37
REMARK   17  A    between atoms: _37  and  _38
REMARK   18  A    between atoms: _38  and  _39
REMARK   19  A    between atoms: _41  and  _43
REMARK   20  A    between atoms: _43  and  _44
REMARK   21  A    between atoms: _43  and  _46
REMARK   22  A    between atoms: _46  and  _47
REMARK   23  A    between atoms: _47  and  _48
REMARK   24  A    between atoms: _53  and  _55
REMARK   25  A    between atoms: _55  and  _56
REMARK   26  A    between atoms: _55  and  _58
REMARK   27  A    between atoms: _58  and  _59
REMARK   28  A    between atoms: _61  and  _63
REMARK   29  A    between atoms: _63  and  _64
REMARK   30  A    between atoms: _63  and  _66
REMARK   31  A    between atoms: _69  and  _71
REMARK   32  A    between atoms: _71  and  _72
REMARK   33  A    between atoms: _71  and  _74
REMARK   34  A    between atoms: _74  and  _75
REMARK   35  A    between atoms: _78  and  _80
REMARK   36  A    between atoms: _80  and  _81
REMARK   37  A    between atoms: _80  and  _83
REMARK   38  A    between atoms: _83  and  _84
REMARK   39  A    between atoms: _86  and  _88
REMARK   40  A    between atoms: _88  and  _89
REMARK   41  A    between atoms: _88  and  _91
REMARK   42  A    between atoms: _91  and  _92
REMARK   43  A    between atoms: _94  and  _96
REMARK   44  A    between atoms: _96  and  _97
REMARK   45  A    between atoms: _99  and  _101
REMARK   46  A    between atoms: _101  and  _102
REMARK   47  A    between atoms: _101  and  _104
REMARK   48  A    between atoms: _104  and  _105
REMARK   49  A    between atoms: _110  and  _112
REMARK   50  A    between atoms: _112  and  _113
REMARK   51  A    between atoms: _112  and  _115
REMARK   52  A    between atoms: _115  and  _116
REMARK   53  A    between atoms: _116  and  _117
REMARK   54  A    between atoms: _117  and  _118
REMARK   55  A    between atoms: _118  and  _119
REMARK   56  A    between atoms: _123  and  _125
REMARK   57  A    between atoms: _125  and  _126
REMARK   58  A    between atoms: _125  and  _128
REMARK   59  A    between atoms: _128  and  _129
REMARK   60  A    between atoms: _132  and  _134
REMARK   61  A    between atoms: _134  and  _135
REMARK   62  A    between atoms: _137  and  _139
REMARK   63  A    between atoms: _139  and  _140
REMARK   64  A    between atoms: _139  and  _142
REMARK   65  A    between atoms: _142  and  _143
REMARK   66  A    between atoms: _146  and  _148
REMARK   67  A    between atoms: _148  and  _149
REMARK   68  A    between atoms: _151  and  _153
REMARK   69  A    between atoms: _153  and  _154
REMARK   70  A    between atoms: _156  and  _158
REMARK   71  A    between atoms: _158  and  _159
REMARK   72  A    between atoms: _161  and  _163
REMARK   73  A    between atoms: _163  and  _164
REMARK   74  A    between atoms: _163  and  _166
REMARK   75  A    between atoms: _166  and  _167
REMARK   76  A    between atoms: _169  and  _171
REMARK   77  A    between atoms: _171  and  _172
REMARK   78  A    between atoms: _171  and  _174
REMARK   79  A    between atoms: _174  and  _175
REMARK   80  A    between atoms: _178  and  _180
REMARK   81  A    between atoms: _180  and  _181
REMARK   82  A    between atoms: _180  and  _183
REMARK   83  A    between atoms: _185  and  _187
REMARK   84  A    between atoms: _187  and  _188
REMARK   85  A    between atoms: _187  and  _190
REMARK   86  A    between atoms: _190  and  _191
REMARK   87  A    between atoms: _194  and  _196
REMARK   88  A    between atoms: _196  and  _197
REMARK   89  A    between atoms: _196  and  _199
REMARK   90  A    between atoms: _199  and  _200
REMARK   91  A    between atoms: _203  and  _205
REMARK   92  A    between atoms: _205  and  _206
REMARK   93  A    between atoms: _205  and  _208
REMARK   94  A    between atoms: _208  and  _209
REMARK   95  A    between atoms: _209  and  _210
REMARK   96  A    between atoms: _210  and  _211
REMARK   97  A    between atoms: _220  and  _222
REMARK   98  A    between atoms: _222  and  _223
REMARK   99  A    between atoms: _222  and  _225
REMARK  100  A    between atoms: _225  and  _226
REMARK  101  A    between atoms: _226  and  _227
REMARK  102  A    between atoms: _232  and  _234
REMARK  103  A    between atoms: _234  and  _235
REMARK  104  A    between atoms: _234  and  _237
REMARK  105  A    between atoms: _239  and  _241
REMARK  106  A    between atoms: _241  and  _242
REMARK  107  A    between atoms: _241  and  _244
REMARK  108  A    between atoms: _244  and  _245
REMARK  109  A    between atoms: _247  and  _249
REMARK  110  A    between atoms: _249  and  _250
REMARK  111  A    between atoms: _249  and  _252
REMARK  112  A    between atoms: _252  and  _253
REMARK  113  A    between atoms: _256  and  _258
REMARK  114  A    between atoms: _258  and  _259
REMARK  115  A    between atoms: _261  and  _263
REMARK  116  A    between atoms: _263  and  _264
REMARK  117  A    between atoms: _266  and  _268
REMARK  118  A    between atoms: _268  and  _269
REMARK  119  A    between atoms: _268  and  _271
REMARK  120  A    between atoms: _271  and  _272
REMARK  121  A    between atoms: _275  and  _277
REMARK  122  A    between atoms: _277  and  _278
REMARK  123  A    between atoms: _277  and  _280
REMARK  124  A    between atoms: _283  and  _285
REMARK  125  A    between atoms: _285  and  _286
REMARK  126  A    between atoms: _285  and  _288
REMARK  127  A    between atoms: _288  and  _289
REMARK  128  A    between atoms: _292  and  _294
REMARK  129  A    between atoms: _294  and  _295
REMARK  130  A    between atoms: _294  and  _297
REMARK  131  A    between atoms: _297  and  _298
REMARK  132  A    between atoms: _298  and  _299
REMARK  133  A    between atoms: _301  and  _303
REMARK  134  A    between atoms: _303  and  _304
REMARK  135  A    between atoms: _303  and  _306
REMARK  136  A    between atoms: _306  and  _307
REMARK  137  A    between atoms: _310  and  _312
REMARK  138  A    between atoms: _312  and  _313
REMARK  139  A    between atoms: _315  and  _317
REMARK  140  A    between atoms: _317  and  _318
REMARK  141  A    between atoms: _317  and  _320
REMARK  142  A    between atoms: _320  and  _321
REMARK  143  A    between atoms: _321  and  _322
REMARK  144  A    between atoms: _322  and  _323
REMARK  145  A    between atoms: _332  and  _334
REMARK  146  A    between atoms: _334  and  _335
REMARK  147  A    between atoms: _334  and  _337
REMARK  148  A    between atoms: _337  and  _338
REMARK  149  A    between atoms: _343  and  _344
REMARK  150  A    between atoms: _346  and  _348
REMARK  151  A    between atoms: _348  and  _349
REMARK  152  A    between atoms: _348  and  _351
REMARK  153  A    between atoms: _351  and  _352
REMARK  154  A    between atoms: _358  and  _360
REMARK  155  A    between atoms: _360  and  _361
REMARK  156  A    between atoms: _364  and  _366
REMARK  157  A    between atoms: _366  and  _367
REMARK  158  A    between atoms: _366  and  _369
REMARK  159  A    between atoms: _369  and  _370
REMARK  160  A    between atoms: _375  and  _376
REMARK  161  A    between atoms: _378  and  _380
REMARK  162  A    between atoms: _380  and  _381
REMARK  163  A    between atoms: _380  and  _383
REMARK  164  A    between atoms: _383  and  _384
REMARK  165  A    between atoms: _394  and  _396
REMARK  166  A    between atoms: _396  and  _397
REMARK  167  A    between atoms: _399  and  _401
REMARK  168  A    between atoms: _401  and  _402
REMARK  169  A    between atoms: _401  and  _404
REMARK  170  A    between atoms: _404  and  _405
REMARK  171  A    between atoms: _405  and  _406
REMARK  172  A    between atoms: _409  and  _411
REMARK  173  A    between atoms: _411  and  _412
REMARK  174  A    between atoms: _414  and  _416
REMARK  175  A    between atoms: _416  and  _417
REMARK  176  A    between atoms: _416  and  _419
REMARK  177  A    between atoms: _419  and  _420
REMARK  178  A    between atoms: _422  and  _424
REMARK  179  A    between atoms: _424  and  _425
REMARK  180  A    between atoms: _424  and  _427
REMARK  181  A    between atoms: _427  and  _428
REMARK  182  A    between atoms: _430  and  _432
REMARK  183  A    between atoms: _432  and  _433
REMARK  184  A    between atoms: _436  and  _438
REMARK  185  A    between atoms: _438  and  _439
REMARK  186  A    between atoms: _438  and  _441
REMARK  187  A    between atoms: _441  and  _442
REMARK  188  A    between atoms: _442  and  _443
REMARK  189  A    between atoms: _443  and  _444
REMARK  190  A    between atoms: _453  and  _455
REMARK  191  A    between atoms: _455  and  _456
REMARK  192  A    between atoms: _455  and  _458
REMARK  193  A    between atoms: _458  and  _459
REMARK  194  A    between atoms: _464  and  _466
REMARK  195  A    between atoms: _466  and  _467
REMARK  196  A    between atoms: _466  and  _469
REMARK  197  A    between atoms: _469  and  _470
REMARK  198  A    between atoms: _470  and  _471
REMARK  199  A    between atoms: _471  and  _472
REMARK  200  A    between atoms: _481  and  _483
REMARK  201  A    between atoms: _483  and  _484
REMARK  202  A    between atoms: _483  and  _486
REMARK  203  A    between atoms: _486  and  _487
REMARK  204  A    between atoms: _492  and  _493
REMARK  205  A    between atoms: _495  and  _497
REMARK  206  A    between atoms: _497  and  _498
REMARK  207  A    between atoms: _497  and  _500
REMARK  208  A    between atoms: _500  and  _501
REMARK  209  A    between atoms: _504  and  _506
REMARK  210  A    between atoms: _506  and  _507
REMARK  211  A    between atoms: _506  and  _509
REMARK  212  A    between atoms: _509  and  _510
REMARK  213  A    between atoms: _510  and  _511
REMARK  214  A    between atoms: _514  and  _516
REMARK  215  A    between atoms: _516  and  _517
REMARK  216  A    between atoms: _516  and  _519
REMARK  217  A    between atoms: _519  and  _520
REMARK  218  A    between atoms: _520  and  _521
REMARK  219  A    between atoms: _524  and  _526
REMARK  220  A    between atoms: _526  and  _527
REMARK  221  A    between atoms: _529  and  _531
REMARK  222  A    between atoms: _531  and  _532
REMARK  223  A    between atoms: _531  and  _534
REMARK  224  A    between atoms: _537  and  _539
REMARK  225  A    between atoms: _539  and  _540
REMARK  226  A    between atoms: _539  and  _542
REMARK  227  A    between atoms: _542  and  _543
REMARK  228  A    between atoms: _546  and  _548
REMARK  229  A    between atoms: _548  and  _549
REMARK  230  A    between atoms: _548  and  _551
REMARK  231  A    between atoms: _554  and  _556
REMARK  232  A    between atoms: _556  and  _557
REMARK  233  A    between atoms: _556  and  _559
REMARK  234  A    between atoms: _559  and  _560
REMARK  235  A    between atoms: _560  and  _561
REMARK  236  A    between atoms: _564  and  _566
REMARK  237  A    between atoms: _566  and  _567
REMARK  238  A    between atoms: _566  and  _569
REMARK  239  A    between atoms: _569  and  _570
REMARK  240  A    between atoms: _575  and  _577
REMARK  241  A    between atoms: _577  and  _578
REMARK  242  A    between atoms: _577  and  _580
REMARK  243  A    between atoms: _580  and  _581
REMARK  244  A    between atoms: _584  and  _586
REMARK  245  A    between atoms: _586  and  _587
REMARK  246  A    between atoms: _586  and  _589
REMARK                            x       y       z     vdW  Elec       q    Type
REMARK                         _______ _______ _______ _____ _____    ______ ____
ROOT
ATOM      1  CA  MET A   5     -31.448  32.650  48.640  0.00  0.00    +0.149 C 
ENDROOT
BRANCH   1   2
ATOM      2  C   MET A   5     -32.129  31.369  49.107  0.00  0.00    +0.241 C 
ATOM      3  O   MET A   5     -32.185  31.083  50.305  0.00  0.00    -0.273 OA
ATOM      4  N   GLN A   6     -32.622  30.596  48.140  0.00  0.00    -0.297 N 
ATOM      5  H   GLN A   6     -32.526  30.909  47.153  0.00  0.00    +0.150 HD
BRANCH   4   6
ATOM      6  CA  GLN A   6     -33.291  29.328  48.411  0.00  0.00    +0.149 C 
BRANCH   6   7
ATOM      7  C   GLN A   6     -32.376  28.381  49.173  0.00  0.00    +0.241 C 
ATOM      8  O   GLN A   6     -32.814  27.681  50.080  0.00  0.00    -0.273 OA
ATOM      9  N   SER A   7     -31.103  28.356  48.793  0.00  0.00    -0.295 N 
ATOM     10  H   SER A   7     -30.788  28.984  48.026  0.00  0.00    +0.150 HD
BRANCH   9  11
ATOM     11  CA  SER A   7     -30.140  27.467  49.429  0.00  0.00    +0.178 C 
BRANCH  11  12
ATOM     12  C   SER A   7     -29.507  28.023  50.698  0.00  0.00    +0.243 C 
ATOM     13  N   VAL A   8     -30.041  29.125  51.217  0.00  0.00    -0.298 N 
ATOM     14  H   VAL A   8     -30.866  29.570  50.766  0.00  0.00    +0.150 HD
ATOM     15  O   SER A   7     -28.551  27.445  51.217  0.00  0.00    -0.273 OA
BRANCH  13  16
ATOM     16  CA  VAL A   8     -29.463  29.703  52.420  0.00  0.00    +0.137 C 
BRANCH  16  17
ATOM     17  CB  VAL A   8     -28.642  30.978  52.084  0.00  0.00    +0.026 C 
ATOM     18  CG2 VAL A   8     -27.997  31.524  53.343  0.00  0.00    +0.002 C 
ATOM     19  CG1 VAL A   8     -27.580  30.663  51.035  0.00  0.00    +0.002 C 
ENDBRANCH  16  17
BRANCH  16  20
ATOM     20  C   VAL A   8     -30.435  30.073  53.543  0.00  0.00    +0.227 C 
ATOM     21  O   VAL A   8     -30.386  29.499  54.630  0.00  0.00    -0.286 OA
ENDBRANCH  16  20
ENDBRANCH  13  16
ENDBRANCH  11  12
BRANCH  11  22
ATOM     22  CB  SER A   7     -29.039  27.088  48.429  0.00  0.00    +0.166 C 
BRANCH  22  23
ATOM     23  OG  SER A   7     -28.411  28.238  47.889  0.00  0.00    -0.380 OA
ATOM     24  H   SER A   7     -29.085  28.791  47.420  0.00  0.00    +0.211 HD
ENDBRANCH  22  23
ENDBRANCH  11  22
ENDBRANCH   9  11
ENDBRANCH   6   7
BRANCH   6  25
ATOM     25  CB  GLN A   6     -33.704  28.644  47.103  0.00  0.00    +0.039 C 
BRANCH  25  26
ATOM     26  CG  GLN A   6     -34.500  29.513  46.152  0.00  0.00    +0.087 C 
BRANCH  26  27
ATOM     27  CD  GLN A   6     -34.876  28.781  44.878  0.00  0.00    +0.219 C 
ATOM     28  OE1 GLN A   6     -34.127  27.932  44.387  0.00  0.00    -0.275 OA
ATOM     29  NE2 GLN A   6     -36.029  29.119  44.324  0.00  0.00    -0.329 N 
ATOM     30 HE21 GLN A   6     -36.630  29.840  44.772  0.00  0.00    +0.145 HD
ATOM     31 HE22 GLN A   6     -36.335  28.664  43.440  0.00  0.00    +0.145 HD
ENDBRANCH  26  27
ENDBRANCH  25  26
ENDBRANCH   6  25
ENDBRANCH   4   6
ENDBRANCH   1   2
BRANCH   1  33
ATOM     32  C   ILE A   4     -31.882  35.002  49.088  0.00  0.00    +0.241 C 
ATOM     33  N   MET A   5     -31.606  33.783  49.541  0.00  0.00    -0.297 N 
ATOM     34  H   MET A   5     -31.500  33.635  50.565  0.00  0.00    +0.150 HD
ATOM     35  O   ILE A   4     -32.080  35.253  47.893  0.00  0.00    -0.273 OA
BRANCH  32  36
ATOM     36  CA  ILE A   4     -31.946  36.099  50.146  0.00  0.00    +0.149 C 
BRANCH  36  39
ATOM     37  C   ALA A   3     -29.926  35.592  51.442  0.00  0.00    +0.241 C 
ATOM     38  O   ALA A   3     -30.434  34.604  51.980  0.00  0.00    -0.273 OA
ATOM     39  N   ILE A   4     -30.567  36.353  50.563  0.00  0.00    -0.297 N 
ATOM     40  H   ILE A   4     -30.066  37.167  50.152  0.00  0.00    +0.150 HD
BRANCH  37  41
ATOM     41  CA  ALA A   3     -28.488  36.017  51.735  0.00  0.00    +0.149 C 
ATOM     42  CB  ALA A   3     -27.551  35.417  50.685  0.00  0.00    +0.031 C 
BRANCH  41  45
ATOM     43  C   SER A   2     -28.568  36.126  54.189  0.00  0.00    +0.243 C 
ATOM     44  O   SER A   2     -29.590  36.820  54.215  0.00  0.00    -0.273 OA
ATOM     45  N   ALA A   3     -27.993  35.697  53.068  0.00  0.00    -0.297 N 
ATOM     46  H   ALA A   3     -27.144  35.101  53.148  0.00  0.00    +0.150 HD
BRANCH  43  47
ATOM     47  CA  SER A   2     -27.863  35.708  55.476  0.00  0.00    +0.178 C 
BRANCH  47  49
ATOM     48  C   VAL A   1     -26.977  37.693  56.545  0.00  0.00    +0.238 C 
ATOM     49  N   SER A   2     -27.907  36.744  56.502  0.00  0.00    -0.295 N 
ATOM     50  H   SER A   2     -28.673  36.740  57.206  0.00  0.00    +0.150 HD
ATOM     51  O   VAL A   1     -26.047  37.745  55.732  0.00  0.00    -0.274 OA
BRANCH  48  52
ATOM     52  CA  VAL A   1     -27.093  38.726  57.670  0.00  0.00    +0.145 C 
BRANCH  52  53
ATOM     53  CB  VAL A   1     -27.862  39.990  57.157  0.00  0.00    +0.025 C 
ATOM     54  CG2 VAL A   1     -27.741  41.131  58.172  0.00  0.00    +0.002 C 
ATOM     55  CG1 VAL A   1     -27.337  40.427  55.803  0.00  0.00    +0.002 C 
ENDBRANCH  52  53
BRANCH  52  56
ATOM     56  N   VAL A   1     -25.740  39.047  58.130  0.00  0.00    -0.238 NA
ATOM     57  H   VAL A   1     -24.999  39.244  57.427  0.00  0.00    +0.142 HD
ENDBRANCH  52  56
ENDBRANCH  48  52
ENDBRANCH  47  49
BRANCH  47  58
ATOM     58  CB  SER A   2     -28.442  34.384  56.012  0.00  0.00    +0.166 C 
BRANCH  58  59
ATOM     59  OG  SER A   2     -29.772  34.524  56.478  0.00  0.00    -0.380 OA
ATOM     60  H   SER A   2     -30.350  34.832  55.736  0.00  0.00    +0.211 HD
ENDBRANCH  58  59
ENDBRANCH  47  58
ENDBRANCH  43  47
ENDBRANCH  41  45
ENDBRANCH  37  41
ENDBRANCH  36  39
BRANCH  36  61
ATOM     61  CB  ILE A   4     -32.558  37.376  49.539  0.00  0.00    +0.027 C 
ATOM     62  CG2 ILE A   4     -34.068  37.218  49.384  0.00  0.00    +0.002 C 
BRANCH  61  63
ATOM     63  CG1 ILE A   4     -32.247  38.571  50.450  0.00  0.00    +0.002 C 
ATOM     64  CD1 ILE A   4     -32.732  39.902  49.909  0.00  0.00    +0.000 C 
ENDBRANCH  61  63
ENDBRANCH  36  61
ENDBRANCH  32  36
ENDBRANCH   1  33
BRANCH   1  65
ATOM     65  CB  MET A   5     -29.958  32.377  48.452  0.00  0.00    +0.041 C 
BRANCH  65  66
ATOM     66  CG  MET A   5     -29.184  33.569  47.915  0.00  0.00    +0.060 C 
BRANCH  66  67
ATOM     67  SD  MET A   5     -27.418  33.279  47.901  0.00  0.00    -0.139 S 
ATOM     68  CE  MET A   5     -27.268  32.136  46.525  0.00  0.00    +0.069 C 
ENDBRANCH  66  67
ENDBRANCH  65  66
ENDBRANCH   1  65
TORSDOF 30
REMARK  Name = ../refined-set-2016/1pvn/1pvn_pocket.pdb
REMARK  246 active torsions:
REMARK  status: ('A' for Active; 'I' for Inactive)
REMARK    1  A    between atoms: _1  and  _3
REMARK    2  A    between atoms: _3  and  _4
REMARK    3  A    between atoms: _3  and  _6
REMARK    4  A    between atoms: _9  and  _11
REMARK    5  A    between atoms: _11  and  _12
REMARK    6  A    between atoms: _11  and  _14
REMARK    7  A    between atoms: _14  and  _15
REMARK    8  A    between atoms: _17  and  _19
REMARK    9  A    between atoms: _19  and  _20
REMARK   10  A    between atoms: _23  and  _25
REMARK   11  A    between atoms: _25  and  _26
REMARK   12  A    between atoms: _25  and  _28
REMARK   13  A    between atoms: _28  and  _29
REMARK   14  A    between atoms: _32  and  _34
REMARK   15  A    between atoms: _34  and  _35
REMARK   16  A    between atoms: _34  and  _37
REMARK   17  A    between atoms: _37  and  _38
REMARK   18  A    between atoms: _38  and  _39
REMARK   19  A    between atoms: _41  and  _43
REMARK   20  A    between atoms: _43  and  _44
REMARK   21  A    between atoms: _43  and  _46
REMARK   22  A    between atoms: _46  and  _47
REMARK   23  A    between atoms: _47  and  _48
REMARK   24  A    between atoms: _53  and  _55
REMARK   25  A    between atoms: _55  and  _56
REMARK   26  A    between atoms: _55  and  _58
REMARK   27  A    between atoms: _58  and  _59
REMARK   28  A    between atoms: _61  and  _63
REMARK   29  A    between atoms: _63  and  _64
REMARK   30  A    between atoms: _63  and  _66
REMARK   31  A    between atoms: _69  and  _71
REMARK   32  A    between atoms: _71  and  _72
REMARK   33  A    between atoms: _71  and  _74
REMARK   34  A    between atoms: _74  and  _75
REMARK   35  A    between atoms: _78  and  _80
REMARK   36  A    between atoms: _80  and  _81
REMARK   37  A    between atoms: _80  and  _83
REMARK   38  A    between atoms: _83  and  _84
REMARK   39  A    between atoms: _86  and  _88
REMARK   40  A    between atoms: _88  and  _89
REMARK   41  A    between atoms: _88  and  _91
REMARK   42  A    between atoms: _91  and  _92
REMARK   43  A    between atoms: _94  and  _96
REMARK   44  A    between atoms: _96  and  _97
REMARK   45  A    between atoms: _99  and  _101
REMARK   46  A    between atoms: _101  and  _102
REMARK   47  A    between atoms: _101  and  _104
REMARK   48  A    between atoms: _104  and  _105
REMARK   49  A    between atoms: _110  and  _112
REMARK   50  A    between atoms: _112  and  _113
REMARK   51  A    between atoms: _112  and  _115
REMARK   52  A    between atoms: _115  and  _116
REMARK   53  A    between atoms: _116  and  _117
REMARK   54  A    between atoms: _117  and  _118
REMARK   55  A    between atoms: _118  and  _119
REMARK   56  A    between atoms: _123  and  _125
REMARK   57  A    between atoms: _125  and  _126
REMARK   58  A    between atoms: _125  and  _128
REMARK   59  A    between atoms: _128  and  _129
REMARK   60  A    between atoms: _132  and  _134
REMARK   61  A    between atoms: _134  and  _135
REMARK   62  A    between atoms: _137  and  _139
REMARK   63  A    between atoms: _139  and  _140
REMARK   64  A    between atoms: _139  and  _142
REMARK   65  A    between atoms: _142  and  _143
REMARK   66  A    between atoms: _146  and  _148
REMARK   67  A    between atoms: _148  and  _149
REMARK   68  A    between atoms: _151  and  _153
REMARK   69  A    between atoms: _153  and  _154
REMARK   70  A    between atoms: _156  and  _158
REMARK   71  A    between atoms: _158  and  _159
REMARK   72  A    between atoms: _161  and  _163
REMARK   73  A    between atoms: _163  and  _164
REMARK   74  A    between atoms: _163  and  _166
REMARK   75  A    between atoms: _166  and  _167
REMARK   76  A    between atoms: _169  and  _171
REMARK   77  A    between atoms: _171  and  _172
REMARK   78  A    between atoms: _171  and  _174
REMARK   79  A    between atoms: _174  and  _175
REMARK   80  A    between atoms: _178  and  _180
REMARK   81  A    between atoms: _180  and  _181
REMARK   82  A    between atoms: _180  and  _183
REMARK   83  A    between atoms: _185  and  _187
REMARK   84  A    between atoms: _187  and  _188
REMARK   85  A    between atoms: _187  and  _190
REMARK   86  A    between atoms: _190  and  _191
REMARK   87  A    between atoms: _194  and  _196
REMARK   88  A    between atoms: _196  and  _197
REMARK   89  A    between atoms: _196  and  _199
REMARK   90  A    between atoms: _199  and  _200
REMARK   91  A    between atoms: _203  and  _205
REMARK   92  A    between atoms: _205  and  _206
REMARK   93  A    between atoms: _205  and  _208
REMARK   94  A    between atoms: _208  and  _209
REMARK   95  A    between atoms: _209  and  _210
REMARK   96  A    between atoms: _210  and  _211
REMARK   97  A    between atoms: _220  and  _222
REMARK   98  A    between atoms: _222  and  _223
REMARK   99  A    between atoms: _222  and  _225
REMARK  100  A    between atoms: _225  and  _226
REMARK  101  A    between atoms: _226  and  _227
REMARK  102  A    between atoms: _232  and  _234
REMARK  103  A    between atoms: _234  and  _235
REMARK  104  A    between atoms: _234  and  _237
REMARK  105  A    between atoms: _239  and  _241
REMARK  106  A    between atoms: _241  and  _242
REMARK  107  A    between atoms: _241  and  _244
REMARK  108  A    between atoms: _244  and  _245
REMARK  109  A    between atoms: _247  and  _249
REMARK  110  A    between atoms: _249  and  _250
REMARK  111  A    between atoms: _249  and  _252
REMARK  112  A    between atoms: _252  and  _253
REMARK  113  A    between atoms: _256  and  _258
REMARK  114  A    between atoms: _258  and  _259
REMARK  115  A    between atoms: _261  and  _263
REMARK  116  A    between atoms: _263  and  _264
REMARK  117  A    between atoms: _266  and  _268
REMARK  118  A    between atoms: _268  and  _269
REMARK  119  A    between atoms: _268  and  _271
REMARK  120  A    between atoms: _271  and  _272
REMARK  121  A    between atoms: _275  and  _277
REMARK  122  A    between atoms: _277  and  _278
REMARK  123  A    between atoms: _277  and  _280
REMARK  124  A    between atoms: _283  and  _285
REMARK  125  A    between atoms: _285  and  _286
REMARK  126  A    between atoms: _285  and  _288
REMARK  127  A    between atoms: _288  and  _289
REMARK  128  A    between atoms: _292  and  _294
REMARK  129  A    between atoms: _294  and  _295
REMARK  130  A    between atoms: _294  and  _297
REMARK  131  A    between atoms: _297  and  _298
REMARK  132  A    between atoms: _298  and  _299
REMARK  133  A    between atoms: _301  and  _303
REMARK  134  A    between atoms: _303  and  _304
REMARK  135  A    between atoms: _303  and  _306
REMARK  136  A    between atoms: _306  and  _307
REMARK  137  A    between atoms: _310  and  _312
REMARK  138  A    between atoms: _312  and  _313
REMARK  139  A    between atoms: _315  and  _317
REMARK  140  A    between atoms: _317  and  _318
REMARK  141  A    between atoms: _317  and  _320
REMARK  142  A    between atoms: _320  and  _321
REMARK  143  A    between atoms: _321  and  _322
REMARK  144  A    between atoms: _322  and  _323
REMARK  145  A    between atoms: _332  and  _334
REMARK  146  A    between atoms: _334  and  _335
REMARK  147  A    between atoms: _334  and  _337
REMARK  148  A    between atoms: _337  and  _338
REMARK  149  A    between atoms: _343  and  _344
REMARK  150  A    between atoms: _346  and  _348
REMARK  151  A    between atoms: _348  and  _349
REMARK  152  A    between atoms: _348  and  _351
REMARK  153  A    between atoms: _351  and  _352
REMARK  154  A    between atoms: _358  and  _360
REMARK  155  A    between atoms: _360  and  _361
REMARK  156  A    between atoms: _364  and  _366
REMARK  157  A    between atoms: _366  and  _367
REMARK  158  A    between atoms: _366  and  _369
REMARK  159  A    between atoms: _369  and  _370
REMARK  160  A    between atoms: _375  and  _376
REMARK  161  A    between atoms: _378  and  _380
REMARK  162  A    between atoms: _380  and  _381
REMARK  163  A    between atoms: _380  and  _383
REMARK  164  A    between atoms: _383  and  _384
REMARK  165  A    between atoms: _394  and  _396
REMARK  166  A    between atoms: _396  and  _397
REMARK  167  A    between atoms: _399  and  _401
REMARK  168  A    between atoms: _401  and  _402
REMARK  169  A    between atoms: _401  and  _404
REMARK  170  A    between atoms: _404  and  _405
REMARK  171  A    between atoms: _405  and  _406
REMARK  172  A    between atoms: _409  and  _411
REMARK  173  A    between atoms: _411  and  _412
REMARK  174  A    between atoms: _414  and  _416
REMARK  175  A    between atoms: _416  and  _417
REMARK  176  A    between atoms: _416  and  _419
REMARK  177  A    between atoms: _419  and  _420
REMARK  178  A    between atoms: _422  and  _424
REMARK  179  A    between atoms: _424  and  _425
REMARK  180  A    between atoms: _424  and  _427
REMARK  181  A    between atoms: _427  and  _428
REMARK  182  A    between atoms: _430  and  _432
REMARK  183  A    between atoms: _432  and  _433
REMARK  184  A    between atoms: _436  and  _438
REMARK  185  A    between atoms: _438  and  _439
REMARK  186  A    between atoms: _438  and  _441
REMARK  187  A    between atoms: _441  and  _442
REMARK  188  A    between atoms: _442  and  _443
REMARK  189  A    between atoms: _443  and  _444
REMARK  190  A    between atoms: _453  and  _455
REMARK  191  A    between atoms: _455  and  _456
REMARK  192  A    between atoms: _455  and  _458
REMARK  193  A    between atoms: _458  and  _459
REMARK  194  A    between atoms: _464  and  _466
REMARK  195  A    between atoms: _466  and  _467
REMARK  196  A    between atoms: _466  and  _469
REMARK  197  A    between atoms: _469  and  _470
REMARK  198  A    between atoms: _470  and  _471
REMARK  199  A    between atoms: _471  and  _472
REMARK  200  A    between atoms: _481  and  _483
REMARK  201  A    between atoms: _483  and  _484
REMARK  202  A    between atoms: _483  and  _486
REMARK  203  A    between atoms: _486  and  _487
REMARK  204  A    between atoms: _492  and  _493
REMARK  205  A    between atoms: _495  and  _497
REMARK  206  A    between atoms: _497  and  _498
REMARK  207  A    between atoms: _497  and  _500
REMARK  208  A    between atoms: _500  and  _501
REMARK  209  A    between atoms: _504  and  _506
REMARK  210  A    between atoms: _506  and  _507
REMARK  211  A    between atoms: _506  and  _509
REMARK  212  A    between atoms: _509  and  _510
REMARK  213  A    between atoms: _510  and  _511
REMARK  214  A    between atoms: _514  and  _516
REMARK  215  A    between atoms: _516  and  _517
REMARK  216  A    between atoms: _516  and  _519
REMARK  217  A    between atoms: _519  and  _520
REMARK  218  A    between atoms: _520  and  _521
REMARK  219  A    between atoms: _524  and  _526
REMARK  220  A    between atoms: _526  and  _527
REMARK  221  A    between atoms: _529  and  _531
REMARK  222  A    between atoms: _531  and  _532
REMARK  223  A    between atoms: _531  and  _534
REMARK  224  A    between atoms: _537  and  _539
REMARK  225  A    between atoms: _539  and  _540
REMARK  226  A    between atoms: _539  and  _542
REMARK  227  A    between atoms: _542  and  _543
REMARK  228  A    between atoms: _546  and  _548
REMARK  229  A    between atoms: _548  and  _549
REMARK  230  A    between atoms: _548  and  _551
REMARK  231  A    between atoms: _554  and  _556
REMARK  232  A    between atoms: _556  and  _557
REMARK  233  A    between atoms: _556  and  _559
REMARK  234  A    between atoms: _559  and  _560
REMARK  235  A    between atoms: _560  and  _561
REMARK  236  A    between atoms: _564  and  _566
REMARK  237  A    between atoms: _566  and  _567
REMARK  238  A    between atoms: _566  and  _569
REMARK  239  A    between atoms: _569  and  _570
REMARK  240  A    between atoms: _575  and  _577
REMARK  241  A    between atoms: _577  and  _578
REMARK  242  A    between atoms: _577  and  _580
REMARK  243  A    between atoms: _580  and  _581
REMARK  244  A    between atoms: _584  and  _586
REMARK  245  A    between atoms: _586  and  _587
REMARK  246  A    between atoms: _586  and  _589
REMARK                            x       y       z     vdW  Elec       q    Type
REMARK                         _______ _______ _______ _____ _____    ______ ____
ROOT
ATOM      1  CA  SER A   2     -32.141  42.481  42.503  0.00  0.00    +0.178 C 
ENDROOT
BRANCH   1   3
ATOM      2  C   ASP A   1     -33.510  41.465  44.239  0.00  0.00    +0.239 C 
ATOM      3  N   SER A   2     -32.458  42.209  43.905  0.00  0.00    -0.295 N 
ATOM      4  H   SER A   2     -31.852  42.603  44.653  0.00  0.00    +0.150 HD
ATOM      5  O   ASP A   1     -34.277  40.982  43.405  0.00  0.00    -0.274 OA
BRANCH   2   6
ATOM      6  CA  ASP A   1     -33.744  41.252  45.731  0.00  0.00    +0.156 C 
BRANCH   6   7
ATOM      7  N   ASP A   1     -34.800  42.142  46.193  0.00  0.00    -0.238 NA
ATOM      8  H   ASP A   1     -35.791  41.876  46.021  0.00  0.00    +0.142 HD
ENDBRANCH   6   7
BRANCH   6   9
ATOM      9  CB  ASP A   1     -34.157  39.803  46.036  0.00  0.00    +0.140 C 
BRANCH   9  10
ATOM     10  CG  ASP A   1     -33.185  38.775  45.489  0.00  0.00    +0.367 C 
ATOM     11  OD2 ASP A   1     -31.960  39.025  45.504  0.00  0.00    -0.246 OA
ATOM     12  OD1 ASP A   1     -33.655  37.698  45.059  0.00  0.00    -0.246 OA
ENDBRANCH   9  10
ENDBRANCH   6   9
ENDBRANCH   2   6
ENDBRANCH   1   3
BRANCH   1  13
ATOM     13  C   SER A   2     -30.638  42.533  42.255  0.00  0.00    +0.243 C 
ATOM     14  O   SER A   2     -29.882  43.058  43.073  0.00  0.00    -0.273 OA
ATOM     15  N   SER A   3     -30.220  41.993  41.114  0.00  0.00    -0.296 N 
ATOM     16  H   SER A   3     -30.919  41.556  40.480  0.00  0.00    +0.150 HD
BRANCH  15  17
ATOM     17  CA  SER A   3     -28.816  41.993  40.721  0.00  0.00    +0.166 C 
BRANCH  17  18
ATOM     18  CB  SER A   3     -28.369  43.436  40.499  0.00  0.00    +0.229 C 
ATOM     19  OG  SER A   3     -27.318  43.858  40.975  0.00  0.00    -0.286 OA
ENDBRANCH  17  18
BRANCH  17  20
ATOM     20  C   SER A   3     -28.637  41.202  39.420  0.00  0.00    +0.165 C 
BRANCH  20  21
ATOM     21  O   SER A   3     -27.303  41.294  38.938  0.00  0.00    -0.380 OA
ATOM     22  H   SER A   3     -27.220  40.774  38.099  0.00  0.00    +0.211 HD
ENDBRANCH  20  21
ENDBRANCH  17  20
ENDBRANCH  15  17
ENDBRANCH   1  13
BRANCH   1  23
ATOM     23  CB  SER A   2     -32.752  43.815  42.061  0.00  0.00    +0.166 C 
BRANCH  23  24
ATOM     24  OG  SER A   2     -34.132  43.891  42.372  0.00  0.00    -0.380 OA
ATOM     25  H   SER A   2     -34.614  43.160  41.910  0.00  0.00    +0.211 HD
ENDBRANCH  23  24
ENDBRANCH   1  23
TORSDOF 12
REMARK  Name = ../refined-set-2016/1pvn/1pvn_pocket.pdb
REMARK  246 active torsions:
REMARK  status: ('A' for Active; 'I' for Inactive)
REMARK    1  A    between atoms: _1  and  _3
REMARK    2  A    between atoms: _3  and  _4
REMARK    3  A    between atoms: _3  and  _6
REMARK    4  A    between atoms: _9  and  _11
REMARK    5  A    between atoms: _11  and  _12
REMARK    6  A    between atoms: _11  and  _14
REMARK    7  A    between atoms: _14  and  _15
REMARK    8  A    between atoms: _17  and  _19
REMARK    9  A    between atoms: _19  and  _20
REMARK   10  A    between atoms: _23  and  _25
REMARK   11  A    between atoms: _25  and  _26
REMARK   12  A    between atoms: _25  and  _28
REMARK   13  A    between atoms: _28  and  _29
REMARK   14  A    between atoms: _32  and  _34
REMARK   15  A    between atoms: _34  and  _35
REMARK   16  A    between atoms: _34  and  _37
REMARK   17  A    between atoms: _37  and  _38
REMARK   18  A    between atoms: _38  and  _39
REMARK   19  A    between atoms: _41  and  _43
REMARK   20  A    between atoms: _43  and  _44
REMARK   21  A    between atoms: _43  and  _46
REMARK   22  A    between atoms: _46  and  _47
REMARK   23  A    between atoms: _47  and  _48
REMARK   24  A    between atoms: _53  and  _55
REMARK   25  A    between atoms: _55  and  _56
REMARK   26  A    between atoms: _55  and  _58
REMARK   27  A    between atoms: _58  and  _59
REMARK   28  A    between atoms: _61  and  _63
REMARK   29  A    between atoms: _63  and  _64
REMARK   30  A    between atoms: _63  and  _66
REMARK   31  A    between atoms: _69  and  _71
REMARK   32  A    between atoms: _71  and  _72
REMARK   33  A    between atoms: _71  and  _74
REMARK   34  A    between atoms: _74  and  _75
REMARK   35  A    between atoms: _78  and  _80
REMARK   36  A    between atoms: _80  and  _81
REMARK   37  A    between atoms: _80  and  _83
REMARK   38  A    between atoms: _83  and  _84
REMARK   39  A    between atoms: _86  and  _88
REMARK   40  A    between atoms: _88  and  _89
REMARK   41  A    between atoms: _88  and  _91
REMARK   42  A    between atoms: _91  and  _92
REMARK   43  A    between atoms: _94  and  _96
REMARK   44  A    between atoms: _96  and  _97
REMARK   45  A    between atoms: _99  and  _101
REMARK   46  A    between atoms: _101  and  _102
REMARK   47  A    between atoms: _101  and  _104
REMARK   48  A    between atoms: _104  and  _105
REMARK   49  A    between atoms: _110  and  _112
REMARK   50  A    between atoms: _112  and  _113
REMARK   51  A    between atoms: _112  and  _115
REMARK   52  A    between atoms: _115  and  _116
REMARK   53  A    between atoms: _116  and  _117
REMARK   54  A    between atoms: _117  and  _118
REMARK   55  A    between atoms: _118  and  _119
REMARK   56  A    between atoms: _123  and  _125
REMARK   57  A    between atoms: _125  and  _126
REMARK   58  A    between atoms: _125  and  _128
REMARK   59  A    between atoms: _128  and  _129
REMARK   60  A    between atoms: _132  and  _134
REMARK   61  A    between atoms: _134  and  _135
REMARK   62  A    between atoms: _137  and  _139
REMARK   63  A    between atoms: _139  and  _140
REMARK   64  A    between atoms: _139  and  _142
REMARK   65  A    between atoms: _142  and  _143
REMARK   66  A    between atoms: _146  and  _148
REMARK   67  A    between atoms: _148  and  _149
REMARK   68  A    between atoms: _151  and  _153
REMARK   69  A    between atoms: _153  and  _154
REMARK   70  A    between atoms: _156  and  _158
REMARK   71  A    between atoms: _158  and  _159
REMARK   72  A    between atoms: _161  and  _163
REMARK   73  A    between atoms: _163  and  _164
REMARK   74  A    between atoms: _163  and  _166
REMARK   75  A    between atoms: _166  and  _167
REMARK   76  A    between atoms: _169  and  _171
REMARK   77  A    between atoms: _171  and  _172
REMARK   78  A    between atoms: _171  and  _174
REMARK   79  A    between atoms: _174  and  _175
REMARK   80  A    between atoms: _178  and  _180
REMARK   81  A    between atoms: _180  and  _181
REMARK   82  A    between atoms: _180  and  _183
REMARK   83  A    between atoms: _185  and  _187
REMARK   84  A    between atoms: _187  and  _188
REMARK   85  A    between atoms: _187  and  _190
REMARK   86  A    between atoms: _190  and  _191
REMARK   87  A    between atoms: _194  and  _196
REMARK   88  A    between atoms: _196  and  _197
REMARK   89  A    between atoms: _196  and  _199
REMARK   90  A    between atoms: _199  and  _200
REMARK   91  A    between atoms: _203  and  _205
REMARK   92  A    between atoms: _205  and  _206
REMARK   93  A    between atoms: _205  and  _208
REMARK   94  A    between atoms: _208  and  _209
REMARK   95  A    between atoms: _209  and  _210
REMARK   96  A    between atoms: _210  and  _211
REMARK   97  A    between atoms: _220  and  _222
REMARK   98  A    between atoms: _222  and  _223
REMARK   99  A    between atoms: _222  and  _225
REMARK  100  A    between atoms: _225  and  _226
REMARK  101  A    between atoms: _226  and  _227
REMARK  102  A    between atoms: _232  and  _234
REMARK  103  A    between atoms: _234  and  _235
REMARK  104  A    between atoms: _234  and  _237
REMARK  105  A    between atoms: _239  and  _241
REMARK  106  A    between atoms: _241  and  _242
REMARK  107  A    between atoms: _241  and  _244
REMARK  108  A    between atoms: _244  and  _245
REMARK  109  A    between atoms: _247  and  _249
REMARK  110  A    between atoms: _249  and  _250
REMARK  111  A    between atoms: _249  and  _252
REMARK  112  A    between atoms: _252  and  _253
REMARK  113  A    between atoms: _256  and  _258
REMARK  114  A    between atoms: _258  and  _259
REMARK  115  A    between atoms: _261  and  _263
REMARK  116  A    between atoms: _263  and  _264
REMARK  117  A    between atoms: _266  and  _268
REMARK  118  A    between atoms: _268  and  _269
REMARK  119  A    between atoms: _268  and  _271
REMARK  120  A    between atoms: _271  and  _272
REMARK  121  A    between atoms: _275  and  _277
REMARK  122  A    between atoms: _277  and  _278
REMARK  123  A    between atoms: _277  and  _280
REMARK  124  A    between atoms: _283  and  _285
REMARK  125  A    between atoms: _285  and  _286
REMARK  126  A    between atoms: _285  and  _288
REMARK  127  A    between atoms: _288  and  _289
REMARK  128  A    between atoms: _292  and  _294
REMARK  129  A    between atoms: _294  and  _295
REMARK  130  A    between atoms: _294  and  _297
REMARK  131  A    between atoms: _297  and  _298
REMARK  132  A    between atoms: _298  and  _299
REMARK  133  A    between atoms: _301  and  _303
REMARK  134  A    between atoms: _303  and  _304
REMARK  135  A    between atoms: _303  and  _306
REMARK  136  A    between atoms: _306  and  _307
REMARK  137  A    between atoms: _310  and  _312
REMARK  138  A    between atoms: _312  and  _313
REMARK  139  A    between atoms: _315  and  _317
REMARK  140  A    between atoms: _317  and  _318
REMARK  141  A    between atoms: _317  and  _320
REMARK  142  A    between atoms: _320  and  _321
REMARK  143  A    between atoms: _321  and  _322
REMARK  144  A    between atoms: _322  and  _323
REMARK  145  A    between atoms: _332  and  _334
REMARK  146  A    between atoms: _334  and  _335
REMARK  147  A    between atoms: _334  and  _337
REMARK  148  A    between atoms: _337  and  _338
REMARK  149  A    between atoms: _343  and  _344
REMARK  150  A    between atoms: _346  and  _348
REMARK  151  A    between atoms: _348  and  _349
REMARK  152  A    between atoms: _348  and  _351
REMARK  153  A    between atoms: _351  and  _352
REMARK  154  A    between atoms: _358  and  _360
REMARK  155  A    between atoms: _360  and  _361
REMARK  156  A    between atoms: _364  and  _366
REMARK  157  A    between atoms: _366  and  _367
REMARK  158  A    between atoms: _366  and  _369
REMARK  159  A    between atoms: _369  and  _370
REMARK  160  A    between atoms: _375  and  _376
REMARK  161  A    between atoms: _378  and  _380
REMARK  162  A    between atoms: _380  and  _381
REMARK  163  A    between atoms: _380  and  _383
REMARK  164  A    between atoms: _383  and  _384
REMARK  165  A    between atoms: _394  and  _396
REMARK  166  A    between atoms: _396  and  _397
REMARK  167  A    between atoms: _399  and  _401
REMARK  168  A    between atoms: _401  and  _402
REMARK  169  A    between atoms: _401  and  _404
REMARK  170  A    between atoms: _404  and  _405
REMARK  171  A    between atoms: _405  and  _406
REMARK  172  A    between atoms: _409  and  _411
REMARK  173  A    between atoms: _411  and  _412
REMARK  174  A    between atoms: _414  and  _416
REMARK  175  A    between atoms: _416  and  _417
REMARK  176  A    between atoms: _416  and  _419
REMARK  177  A    between atoms: _419  and  _420
REMARK  178  A    between atoms: _422  and  _424
REMARK  179  A    between atoms: _424  and  _425
REMARK  180  A    between atoms: _424  and  _427
REMARK  181  A    between atoms: _427  and  _428
REMARK  182  A    between atoms: _430  and  _432
REMARK  183  A    between atoms: _432  and  _433
REMARK  184  A    between atoms: _436  and  _438
REMARK  185  A    between atoms: _438  and  _439
REMARK  186  A    between atoms: _438  and  _441
REMARK  187  A    between atoms: _441  and  _442
REMARK  188  A    between atoms: _442  and  _443
REMARK  189  A    between atoms: _443  and  _444
REMARK  190  A    between atoms: _453  and  _455
REMARK  191  A    between atoms: _455  and  _456
REMARK  192  A    between atoms: _455  and  _458
REMARK  193  A    between atoms: _458  and  _459
REMARK  194  A    between atoms: _464  and  _466
REMARK  195  A    between atoms: _466  and  _467
REMARK  196  A    between atoms: _466  and  _469
REMARK  197  A    between atoms: _469  and  _470
REMARK  198  A    between atoms: _470  and  _471
REMARK  199  A    between atoms: _471  and  _472
REMARK  200  A    between atoms: _481  and  _483
REMARK  201  A    between atoms: _483  and  _484
REMARK  202  A    between atoms: _483  and  _486
REMARK  203  A    between atoms: _486  and  _487
REMARK  204  A    between atoms: _492  and  _493
REMARK  205  A    between atoms: _495  and  _497
REMARK  206  A    between atoms: _497  and  _498
REMARK  207  A    between atoms: _497  and  _500
REMARK  208  A    between atoms: _500  and  _501
REMARK  209  A    between atoms: _504  and  _506
REMARK  210  A    between atoms: _506  and  _507
REMARK  211  A    between atoms: _506  and  _509
REMARK  212  A    between atoms: _509  and  _510
REMARK  213  A    between atoms: _510  and  _511
REMARK  214  A    between atoms: _514  and  _516
REMARK  215  A    between atoms: _516  and  _517
REMARK  216  A    between atoms: _516  and  _519
REMARK  217  A    between atoms: _519  and  _520
REMARK  218  A    between atoms: _520  and  _521
REMARK  219  A    between atoms: _524  and  _526
REMARK  220  A    between atoms: _526  and  _527
REMARK  221  A    between atoms: _529  and  _531
REMARK  222  A    between atoms: _531  and  _532
REMARK  223  A    between atoms: _531  and  _534
REMARK  224  A    between atoms: _537  and  _539
REMARK  225  A    between atoms: _539  and  _540
REMARK  226  A    between atoms: _539  and  _542
REMARK  227  A    between atoms: _542  and  _543
REMARK  228  A    between atoms: _546  and  _548
REMARK  229  A    between atoms: _548  and  _549
REMARK  230  A    between atoms: _548  and  _551
REMARK  231  A    between atoms: _554  and  _556
REMARK  232  A    between atoms: _556  and  _557
REMARK  233  A    between atoms: _556  and  _559
REMARK  234  A    between atoms: _559  and  _560
REMARK  235  A    between atoms: _560  and  _561
REMARK  236  A    between atoms: _564  and  _566
REMARK  237  A    between atoms: _566  and  _567
REMARK  238  A    between atoms: _566  and  _569
REMARK  239  A    between atoms: _569  and  _570
REMARK  240  A    between atoms: _575  and  _577
REMARK  241  A    between atoms: _577  and  _578
REMARK  242  A    between atoms: _577  and  _580
REMARK  243  A    between atoms: _580  and  _581
REMARK  244  A    between atoms: _584  and  _586
REMARK  245  A    between atoms: _586  and  _587
REMARK  246  A    between atoms: _586  and  _589
REMARK                            x       y       z     vdW  Elec       q    Type
REMARK                         _______ _______ _______ _____ _____    ______ ____
ROOT
ATOM      1  CA  ASN A   2     -27.281  46.497  44.854  0.00  0.00    +0.146 C 
ENDROOT
BRANCH   1   3
ATOM      2  C   GLY A   1     -29.745  46.858  45.028  0.00  0.00    +0.240 C 
ATOM      3  N   ASN A   2     -28.483  47.214  45.190  0.00  0.00    -0.298 N 
ATOM      4  H   ASN A   2     -28.337  48.148  45.623  0.00  0.00    +0.150 HD
ATOM      5  O   GLY A   1     -30.147  45.784  44.576  0.00  0.00    -0.274 OA
BRANCH   2   6
ATOM      6  CA  GLY A   1     -30.631  47.992  45.442  0.00  0.00    +0.169 C 
BRANCH   6   7
ATOM      7  N   GLY A   1     -31.760  47.943  46.324  0.00  0.00    -0.236 NA
ATOM      8  H   GLY A   1     -32.707  47.792  45.922  0.00  0.00    +0.142 HD
ENDBRANCH   6   7
ENDBRANCH   2   6
ENDBRANCH   1   3
BRANCH   1   9
ATOM      9  C   ASN A   2     -26.847  47.387  43.730  0.00  0.00    +0.227 C 
ATOM     10  O   ASN A   2     -27.263  47.286  42.563  0.00  0.00    -0.286 OA
ENDBRANCH   1   9
BRANCH   1  11
ATOM     11  CB  ASN A   2     -27.497  45.053  44.440  0.00  0.00    +0.112 C 
BRANCH  11  12
ATOM     12  CG  ASN A   2     -27.395  44.117  45.626  0.00  0.00    +0.222 C 
ATOM     13  OD1 ASN A   2     -28.303  44.051  46.441  0.00  0.00    -0.275 OA
ATOM     14  ND2 ASN A   2     -26.269  43.419  45.748  0.00  0.00    -0.329 N 
ATOM     15 HD21 ASN A   2     -26.135  42.786  46.562  0.00  0.00    +0.145 HD
ATOM     16 HD22 ASN A   2     -25.522  43.507  45.029  0.00  0.00    +0.145 HD
ENDBRANCH  11  12
ENDBRANCH   1  11
TORSDOF 6
REMARK  Name = ../refined-set-2016/1pvn/1pvn_pocket.pdb
REMARK  246 active torsions:
REMARK  status: ('A' for Active; 'I' for Inactive)
REMARK    1  A    between atoms: _1  and  _3
REMARK    2  A    between atoms: _3  and  _4
REMARK    3  A    between atoms: _3  and  _6
REMARK    4  A    between atoms: _9  and  _11
REMARK    5  A    between atoms: _11  and  _12
REMARK    6  A    between atoms: _11  and  _14
REMARK    7  A    between atoms: _14  and  _15
REMARK    8  A    between atoms: _17  and  _19
REMARK    9  A    between atoms: _19  and  _20
REMARK   10  A    between atoms: _23  and  _25
REMARK   11  A    between atoms: _25  and  _26
REMARK   12  A    between atoms: _25  and  _28
REMARK   13  A    between atoms: _28  and  _29
REMARK   14  A    between atoms: _32  and  _34
REMARK   15  A    between atoms: _34  and  _35
REMARK   16  A    between atoms: _34  and  _37
REMARK   17  A    between atoms: _37  and  _38
REMARK   18  A    between atoms: _38  and  _39
REMARK   19  A    between atoms: _41  and  _43
REMARK   20  A    between atoms: _43  and  _44
REMARK   21  A    between atoms: _43  and  _46
REMARK   22  A    between atoms: _46  and  _47
REMARK   23  A    between atoms: _47  and  _48
REMARK   24  A    between atoms: _53  and  _55
REMARK   25  A    between atoms: _55  and  _56
REMARK   26  A    between atoms: _55  and  _58
REMARK   27  A    between atoms: _58  and  _59
REMARK   28  A    between atoms: _61  and  _63
REMARK   29  A    between atoms: _63  and  _64
REMARK   30  A    between atoms: _63  and  _66
REMARK   31  A    between atoms: _69  and  _71
REMARK   32  A    between atoms: _71  and  _72
REMARK   33  A    between atoms: _71  and  _74
REMARK   34  A    between atoms: _74  and  _75
REMARK   35  A    between atoms: _78  and  _80
REMARK   36  A    between atoms: _80  and  _81
REMARK   37  A    between atoms: _80  and  _83
REMARK   38  A    between atoms: _83  and  _84
REMARK   39  A    between atoms: _86  and  _88
REMARK   40  A    between atoms: _88  and  _89
REMARK   41  A    between atoms: _88  and  _91
REMARK   42  A    between atoms: _91  and  _92
REMARK   43  A    between atoms: _94  and  _96
REMARK   44  A    between atoms: _96  and  _97
REMARK   45  A    between atoms: _99  and  _101
REMARK   46  A    between atoms: _101  and  _102
REMARK   47  A    between atoms: _101  and  _104
REMARK   48  A    between atoms: _104  and  _105
REMARK   49  A    between atoms: _110  and  _112
REMARK   50  A    between atoms: _112  and  _113
REMARK   51  A    between atoms: _112  and  _115
REMARK   52  A    between atoms: _115  and  _116
REMARK   53  A    between atoms: _116  and  _117
REMARK   54  A    between atoms: _117  and  _118
REMARK   55  A    between atoms: _118  and  _119
REMARK   56  A    between atoms: _123  and  _125
REMARK   57  A    between atoms: _125  and  _126
REMARK   58  A    between atoms: _125  and  _128
REMARK   59  A    between atoms: _128  and  _129
REMARK   60  A    between atoms: _132  and  _134
REMARK   61  A    between atoms: _134  and  _135
REMARK   62  A    between atoms: _137  and  _139
REMARK   63  A    between atoms: _139  and  _140
REMARK   64  A    between atoms: _139  and  _142
REMARK   65  A    between atoms: _142  and  _143
REMARK   66  A    between atoms: _146  and  _148
REMARK   67  A    between atoms: _148  and  _149
REMARK   68  A    between atoms: _151  and  _153
REMARK   69  A    between atoms: _153  and  _154
REMARK   70  A    between atoms: _156  and  _158
REMARK   71  A    between atoms: _158  and  _159
REMARK   72  A    between atoms: _161  and  _163
REMARK   73  A    between atoms: _163  and  _164
REMARK   74  A    between atoms: _163  and  _166
REMARK   75  A    between atoms: _166  and  _167
REMARK   76  A    between atoms: _169  and  _171
REMARK   77  A    between atoms: _171  and  _172
REMARK   78  A    between atoms: _171  and  _174
REMARK   79  A    between atoms: _174  and  _175
REMARK   80  A    between atoms: _178  and  _180
REMARK   81  A    between atoms: _180  and  _181
REMARK   82  A    between atoms: _180  and  _183
REMARK   83  A    between atoms: _185  and  _187
REMARK   84  A    between atoms: _187  and  _188
REMARK   85  A    between atoms: _187  and  _190
REMARK   86  A    between atoms: _190  and  _191
REMARK   87  A    between atoms: _194  and  _196
REMARK   88  A    between atoms: _196  and  _197
REMARK   89  A    between atoms: _196  and  _199
REMARK   90  A    between atoms: _199  and  _200
REMARK   91  A    between atoms: _203  and  _205
REMARK   92  A    between atoms: _205  and  _206
REMARK   93  A    between atoms: _205  and  _208
REMARK   94  A    between atoms: _208  and  _209
REMARK   95  A    between atoms: _209  and  _210
REMARK   96  A    between atoms: _210  and  _211
REMARK   97  A    between atoms: _220  and  _222
REMARK   98  A    between atoms: _222  and  _223
REMARK   99  A    between atoms: _222  and  _225
REMARK  100  A    between atoms: _225  and  _226
REMARK  101  A    between atoms: _226  and  _227
REMARK  102  A    between atoms: _232  and  _234
REMARK  103  A    between atoms: _234  and  _235
REMARK  104  A    between atoms: _234  and  _237
REMARK  105  A    between atoms: _239  and  _241
REMARK  106  A    between atoms: _241  and  _242
REMARK  107  A    between atoms: _241  and  _244
REMARK  108  A    between atoms: _244  and  _245
REMARK  109  A    between atoms: _247  and  _249
REMARK  110  A    between atoms: _249  and  _250
REMARK  111  A    between atoms: _249  and  _252
REMARK  112  A    between atoms: _252  and  _253
REMARK  113  A    between atoms: _256  and  _258
REMARK  114  A    between atoms: _258  and  _259
REMARK  115  A    between atoms: _261  and  _263
REMARK  116  A    between atoms: _263  and  _264
REMARK  117  A    between atoms: _266  and  _268
REMARK  118  A    between atoms: _268  and  _269
REMARK  119  A    between atoms: _268  and  _271
REMARK  120  A    between atoms: _271  and  _272
REMARK  121  A    between atoms: _275  and  _277
REMARK  122  A    between atoms: _277  and  _278
REMARK  123  A    between atoms: _277  and  _280
REMARK  124  A    between atoms: _283  and  _285
REMARK  125  A    between atoms: _285  and  _286
REMARK  126  A    between atoms: _285  and  _288
REMARK  127  A    between atoms: _288  and  _289
REMARK  128  A    between atoms: _292  and  _294
REMARK  129  A    between atoms: _294  and  _295
REMARK  130  A    between atoms: _294  and  _297
REMARK  131  A    between atoms: _297  and  _298
REMARK  132  A    between atoms: _298  and  _299
REMARK  133  A    between atoms: _301  and  _303
REMARK  134  A    between atoms: _303  and  _304
REMARK  135  A    between atoms: _303  and  _306
REMARK  136  A    between atoms: _306  and  _307
REMARK  137  A    between atoms: _310  and  _312
REMARK  138  A    between atoms: _312  and  _313
REMARK  139  A    between atoms: _315  and  _317
REMARK  140  A    between atoms: _317  and  _318
REMARK  141  A    between atoms: _317  and  _320
REMARK  142  A    between atoms: _320  and  _321
REMARK  143  A    between atoms: _321  and  _322
REMARK  144  A    between atoms: _322  and  _323
REMARK  145  A    between atoms: _332  and  _334
REMARK  146  A    between atoms: _334  and  _335
REMARK  147  A    between atoms: _334  and  _337
REMARK  148  A    between atoms: _337  and  _338
REMARK  149  A    between atoms: _343  and  _344
REMARK  150  A    between atoms: _346  and  _348
REMARK  151  A    between atoms: _348  and  _349
REMARK  152  A    between atoms: _348  and  _351
REMARK  153  A    between atoms: _351  and  _352
REMARK  154  A    between atoms: _358  and  _360
REMARK  155  A    between atoms: _360  and  _361
REMARK  156  A    between atoms: _364  and  _366
REMARK  157  A    between atoms: _366  and  _367
REMARK  158  A    between atoms: _366  and  _369
REMARK  159  A    between atoms: _369  and  _370
REMARK  160  A    between atoms: _375  and  _376
REMARK  161  A    between atoms: _378  and  _380
REMARK  162  A    between atoms: _380  and  _381
REMARK  163  A    between atoms: _380  and  _383
REMARK  164  A    between atoms: _383  and  _384
REMARK  165  A    between atoms: _394  and  _396
REMARK  166  A    between atoms: _396  and  _397
REMARK  167  A    between atoms: _399  and  _401
REMARK  168  A    between atoms: _401  and  _402
REMARK  169  A    between atoms: _401  and  _404
REMARK  170  A    between atoms: _404  and  _405
REMARK  171  A    between atoms: _405  and  _406
REMARK  172  A    between atoms: _409  and  _411
REMARK  173  A    between atoms: _411  and  _412
REMARK  174  A    between atoms: _414  and  _416
REMARK  175  A    between atoms: _416  and  _417
REMARK  176  A    between atoms: _416  and  _419
REMARK  177  A    between atoms: _419  and  _420
REMARK  178  A    between atoms: _422  and  _424
REMARK  179  A    between atoms: _424  and  _425
REMARK  180  A    between atoms: _424  and  _427
REMARK  181  A    between atoms: _427  and  _428
REMARK  182  A    between atoms: _430  and  _432
REMARK  183  A    between atoms: _432  and  _433
REMARK  184  A    between atoms: _436  and  _438
REMARK  185  A    between atoms: _438  and  _439
REMARK  186  A    between atoms: _438  and  _441
REMARK  187  A    between atoms: _441  and  _442
REMARK  188  A    between atoms: _442  and  _443
REMARK  189  A    between atoms: _443  and  _444
REMARK  190  A    between atoms: _453  and  _455
REMARK  191  A    between atoms: _455  and  _456
REMARK  192  A    between atoms: _455  and  _458
REMARK  193  A    between atoms: _458  and  _459
REMARK  194  A    between atoms: _464  and  _466
REMARK  195  A    between atoms: _466  and  _467
REMARK  196  A    between atoms: _466  and  _469
REMARK  197  A    between atoms: _469  and  _470
REMARK  198  A    between atoms: _470  and  _471
REMARK  199  A    between atoms: _471  and  _472
REMARK  200  A    between atoms: _481  and  _483
REMARK  201  A    between atoms: _483  and  _484
REMARK  202  A    between atoms: _483  and  _486
REMARK  203  A    between atoms: _486  and  _487
REMARK  204  A    between atoms: _492  and  _493
REMARK  205  A    between atoms: _495  and  _497
REMARK  206  A    between atoms: _497  and  _498
REMARK  207  A    between atoms: _497  and  _500
REMARK  208  A    between atoms: _500  and  _501
REMARK  209  A    between atoms: _504  and  _506
REMARK  210  A    between atoms: _506  and  _507
REMARK  211  A    between atoms: _506  and  _509
REMARK  212  A    between atoms: _509  and  _510
REMARK  213  A    between atoms: _510  and  _511
REMARK  214  A    between atoms: _514  and  _516
REMARK  215  A    between atoms: _516  and  _517
REMARK  216  A    between atoms: _516  and  _519
REMARK  217  A    between atoms: _519  and  _520
REMARK  218  A    between atoms: _520  and  _521
REMARK  219  A    between atoms: _524  and  _526
REMARK  220  A    between atoms: _526  and  _527
REMARK  221  A    between atoms: _529  and  _531
REMARK  222  A    between atoms: _531  and  _532
REMARK  223  A    between atoms: _531  and  _534
REMARK  224  A    between atoms: _537  and  _539
REMARK  225  A    between atoms: _539  and  _540
REMARK  226  A    between atoms: _539  and  _542
REMARK  227  A    between atoms: _542  and  _543
REMARK  228  A    between atoms: _546  and  _548
REMARK  229  A    between atoms: _548  and  _549
REMARK  230  A    between atoms: _548  and  _551
REMARK  231  A    between atoms: _554  and  _556
REMARK  232  A    between atoms: _556  and  _557
REMARK  233  A    between atoms: _556  and  _559
REMARK  234  A    between atoms: _559  and  _560
REMARK  235  A    between atoms: _560  and  _561
REMARK  236  A    between atoms: _564  and  _566
REMARK  237  A    between atoms: _566  and  _567
REMARK  238  A    between atoms: _566  and  _569
REMARK  239  A    between atoms: _569  and  _570
REMARK  240  A    between atoms: _575  and  _577
REMARK  241  A    between atoms: _577  and  _578
REMARK  242  A    between atoms: _577  and  _580
REMARK  243  A    between atoms: _580  and  _581
REMARK  244  A    between atoms: _584  and  _586
REMARK  245  A    between atoms: _586  and  _587
REMARK  246  A    between atoms: _586  and  _589
REMARK                            x       y       z     vdW  Elec       q    Type
REMARK                         _______ _______ _______ _____ _____    ______ ____
ROOT
ATOM      1  CA  SER A   8     -19.140  32.951  44.979  0.00  0.00    +0.178 C 
ENDROOT
BRANCH   1   3
ATOM      2  C   GLY A   7     -20.133  35.090  44.315  0.00  0.00    +0.243 C 
ATOM      3  N   SER A   8     -19.883  34.179  45.252  0.00  0.00    -0.295 N 
ATOM      4  H   SER A   8     -20.230  34.348  46.218  0.00  0.00    +0.150 HD
ATOM      5  O   GLY A   7     -19.772  34.969  43.145  0.00  0.00    -0.273 OA
BRANCH   2   6
ATOM      6  CA  GLY A   7     -20.913  36.313  44.766  0.00  0.00    +0.176 C 
BRANCH   6   9
ATOM      7  C   GLY A   6     -19.201  37.951  44.282  0.00  0.00    +0.243 C 
ATOM      8  O   GLY A   6     -18.353  37.288  44.880  0.00  0.00    -0.273 OA
ATOM      9  N   GLY A   7     -20.467  37.560  44.166  0.00  0.00    -0.295 N 
ATOM     10  H   GLY A   7     -21.143  38.151  43.642  0.00  0.00    +0.150 HD
BRANCH   7  11
ATOM     11  CA  GLY A   6     -18.826  39.277  43.638  0.00  0.00    +0.176 C 
BRANCH  11  13
ATOM     12  C   GLY A   5     -19.870  39.355  41.469  0.00  0.00    +0.243 C 
ATOM     13  N   GLY A   6     -19.802  39.824  42.710  0.00  0.00    -0.295 N 
ATOM     14  H   GLY A   6     -20.446  40.581  43.017  0.00  0.00    +0.150 HD
ATOM     15  O   GLY A   5     -19.145  38.447  41.065  0.00  0.00    -0.273 OA
BRANCH  12  16
ATOM     16  CA  GLY A   5     -20.894  39.976  40.535  0.00  0.00    +0.176 C 
BRANCH  16  18
ATOM     17  C   ILE A   4     -21.523  42.244  41.110  0.00  0.00    +0.241 C 
ATOM     18  N   GLY A   5     -21.835  40.951  41.065  0.00  0.00    -0.295 N 
ATOM     19  H   GLY A   5     -22.762  40.634  41.413  0.00  0.00    +0.150 HD
ATOM     20  O   ILE A   4     -20.421  42.681  40.775  0.00  0.00    -0.273 OA
BRANCH  17  21
ATOM     21  CA  ILE A   4     -22.603  43.185  41.644  0.00  0.00    +0.149 C 
BRANCH  21  24
ATOM     22  C   GLY A   3     -22.914  43.987  43.920  0.00  0.00    +0.243 C 
ATOM     23  O   GLY A   3     -24.102  43.661  43.934  0.00  0.00    -0.273 OA
ATOM     24  N   ILE A   4     -22.125  43.820  42.865  0.00  0.00    -0.297 N 
ATOM     25  H   ILE A   4     -21.140  44.151  42.912  0.00  0.00    +0.150 HD
BRANCH  22  26
ATOM     26  CA  GLY A   3     -22.256  44.607  45.131  0.00  0.00    +0.176 C 
BRANCH  26  29
ATOM     27  C   ILE A   2     -23.136  45.715  47.073  0.00  0.00    +0.241 C 
ATOM     28  O   ILE A   2     -22.950  44.714  47.758  0.00  0.00    -0.273 OA
ATOM     29  N   GLY A   3     -22.858  45.758  45.772  0.00  0.00    -0.295 N 
ATOM     30  H   GLY A   3     -23.072  46.613  45.219  0.00  0.00    +0.150 HD
BRANCH  27  31
ATOM     31  CA  ILE A   2     -23.705  46.986  47.695  0.00  0.00    +0.148 C 
BRANCH  31  33
ATOM     32  C   LYS A   1     -26.070  47.086  48.345  0.00  0.00    +0.238 C 
ATOM     33  N   ILE A   2     -24.811  46.757  48.621  0.00  0.00    -0.297 N 
ATOM     34  H   ILE A   2     -24.604  46.316  49.540  0.00  0.00    +0.150 HD
ATOM     35  O   LYS A   1     -26.429  47.551  47.253  0.00  0.00    -0.274 OA
BRANCH  32  36
ATOM     36  CA  LYS A   1     -27.074  46.828  49.471  0.00  0.00    +0.145 C 
BRANCH  36  37
ATOM     37  N   LYS A   1     -27.982  47.950  49.666  0.00  0.00    -0.238 NA
ATOM     38  H   LYS A   1     -28.878  47.963  49.138  0.00  0.00    +0.142 HD
ENDBRANCH  36  37
BRANCH  36  39
ATOM     39  CB  LYS A   1     -27.889  45.565  49.195  0.00  0.00    +0.026 C 
BRANCH  39  40
ATOM     40  CG  LYS A   1     -27.157  44.273  49.498  0.00  0.00    -0.000 C 
BRANCH  40  41
ATOM     41  CD  LYS A   1     -28.061  43.297  50.263  0.00  0.00    -0.024 C 
BRANCH  41  42
ATOM     42  CE  LYS A   1     -29.314  42.946  49.467  0.00  0.00    -0.086 C 
BRANCH  42  43
ATOM     43  NZ  LYS A   1     -28.965  42.314  48.170  0.00  0.00    +0.380 N 
ATOM     44  HZ1 LYS A   1     -28.426  41.442  48.345  0.00  0.00    -0.089 HD
ATOM     45  HZ2 LYS A   1     -29.837  42.086  47.651  0.00  0.00    -0.089 HD
ATOM     46  HZ3 LYS A   1     -28.388  42.973  47.609  0.00  0.00    -0.089 HD
ENDBRANCH  42  43
ENDBRANCH  41  42
ENDBRANCH  40  41
ENDBRANCH  39  40
ENDBRANCH  36  39
ENDBRANCH  32  36
ENDBRANCH  31  33
BRANCH  31  47
ATOM     47  CB  ILE A   2     -22.543  47.702  48.436  0.00  0.00    +0.027 C 
ATOM     48  CG2 ILE A   2     -21.376  47.958  47.480  0.00  0.00    +0.002 C 
BRANCH  47  49
ATOM     49  CG1 ILE A   2     -23.046  49.010  49.049  0.00  0.00    +0.002 C 
ATOM     50  CD1 ILE A   2     -22.164  49.543  50.151  0.00  0.00    +0.000 C 
ENDBRANCH  47  49
ENDBRANCH  31  47
ENDBRANCH  27  31
ENDBRANCH  26  29
ENDBRANCH  22  26
ENDBRANCH  21  24
BRANCH  21  51
ATOM     51  CB  ILE A   4     -22.940  44.212  40.537  0.00  0.00    +0.027 C 
ATOM     52  CG2 ILE A   4     -23.278  43.477  39.241  0.00  0.00    +0.002 C 
BRANCH  51  53
ATOM     53  CG1 ILE A   4     -24.123  45.084  40.959  0.00  0.00    +0.002 C 
ATOM     54  CD1 ILE A   4     -24.481  46.174  39.943  0.00  0.00    +0.000 C 
ENDBRANCH  51  53
ENDBRANCH  21  51
ENDBRANCH  17  21
ENDBRANCH  16  18
ENDBRANCH  12  16
ENDBRANCH  11  13
ENDBRANCH   7  11
ENDBRANCH   6   9
ENDBRANCH   2   6
ENDBRANCH   1   3
BRANCH   1  55
ATOM     55  C   SER A   8     -19.741  32.118  43.848  0.00  0.00    +0.243 C 
ATOM     56  N   ILE A   9     -21.067  32.113  43.737  0.00  0.00    -0.297 N 
ATOM     57  H   ILE A   9     -21.638  32.670  44.404  0.00  0.00    +0.150 HD
ATOM     58  O   SER A   8     -19.011  31.480  43.096  0.00  0.00    -0.273 OA
BRANCH  56  59
ATOM     59  CA  ILE A   9     -21.736  31.336  42.690  0.00  0.00    +0.149 C 
BRANCH  59  60
ATOM     60  C   ILE A   9     -22.239  32.192  41.532  0.00  0.00    +0.241 C 
ATOM     61  N   CYS A  10     -21.802  33.447  41.496  0.00  0.00    -0.296 N 
ATOM     62  H   CYS A  10     -21.142  33.772  42.231  0.00  0.00    +0.150 HD
ATOM     63  O   ILE A   9     -22.993  31.719  40.677  0.00  0.00    -0.273 OA
BRANCH  61  64
ATOM     64  CA  CYS A  10     -22.220  34.383  40.456  0.00  0.00    +0.160 C 
BRANCH  64  65
ATOM     65  C   CYS A  10     -21.275  34.462  39.256  0.00  0.00    +0.242 C 
ATOM     66  O   CYS A  10     -20.058  34.534  39.418  0.00  0.00    -0.273 OA
ATOM     67  N   ILE A  11     -21.844  34.448  38.052  0.00  0.00    -0.297 N 
ATOM     68  H   ILE A  11     -22.877  34.359  37.977  0.00  0.00    +0.150 HD
BRANCH  67  69
ATOM     69  CA  ILE A  11     -21.044  34.556  36.833  0.00  0.00    +0.149 C 
BRANCH  69  70
ATOM     70  C   ILE A  11     -21.565  35.697  35.959  0.00  0.00    +0.241 C 
ATOM     71  N   THR A  12     -22.250  36.646  36.590  0.00  0.00    -0.295 N 
ATOM     72  H   THR A  12     -22.404  36.560  37.615  0.00  0.00    +0.150 HD
ATOM     73  O   ILE A  11     -21.356  35.714  34.746  0.00  0.00    -0.273 OA
BRANCH  71  74
ATOM     74  CA  THR A  12     -22.791  37.802  35.888  0.00  0.00    +0.176 C 
BRANCH  74  75
ATOM     75  C   THR A  12     -21.696  38.599  35.175  0.00  0.00    +0.243 C 
ATOM     76  N   ARG A  13     -20.577  38.827  35.859  0.00  0.00    -0.298 N 
ATOM     77  H   ARG A  13     -20.481  38.452  36.824  0.00  0.00    +0.150 HD
ATOM     78  O   THR A  12     -21.864  39.003  34.021  0.00  0.00    -0.273 OA
BRANCH  76  79
ATOM     79  CA  ARG A  13     -19.483  39.596  35.272  0.00  0.00    +0.137 C 
BRANCH  79  80
ATOM     80  C   ARG A  13     -18.906  38.938  34.025  0.00  0.00    +0.227 C 
ATOM     81  O   ARG A  13     -18.355  39.614  33.159  0.00  0.00    -0.286 OA
ENDBRANCH  79  80
BRANCH  79  82
ATOM     82  CB  ARG A  13     -18.365  39.829  36.303  0.00  0.00    +0.031 C 
BRANCH  82  83
ATOM     83  CG  ARG A  13     -18.764  40.715  37.490  0.00  0.00    +0.045 C 
BRANCH  83  84
ATOM     84  CD  ARG A  13     -17.563  41.006  38.390  0.00  0.00    +0.174 C 
BRANCH  84  85
ATOM     85  NE  ARG A  13     -17.964  41.519  39.699  0.00  0.00    -0.265 N 
ATOM     86  CZ  ARG A  13     -17.154  41.604  40.752  0.00  0.00    +0.342 C 
ATOM     87  NH2 ARG A  13     -17.619  42.060  41.908  0.00  0.00    -0.292 N 
ATOM     88 HH21 ARG A  13     -16.988  42.127  42.732  0.00  0.00    +0.255 HD
ATOM     89 HH22 ARG A  13     -18.614  42.350  41.990  0.00  0.00    +0.255 HD
ATOM     90  NH1 ARG A  13     -15.886  41.216  40.660  0.00  0.00    -0.292 N 
ATOM     91 HH11 ARG A  13     -15.260  41.286  41.487  0.00  0.00    +0.255 HD
ATOM     92 HH12 ARG A  13     -15.520  40.843  39.761  0.00  0.00    +0.255 HD
ATOM     93  HE  ARG A  13     -18.947  41.839  39.815  0.00  0.00    +0.259 HD
ENDBRANCH  84  85
ENDBRANCH  83  84
ENDBRANCH  82  83
ENDBRANCH  79  82
ENDBRANCH  76  79
ENDBRANCH  74  75
BRANCH  74  94
ATOM     94  CB  THR A  12     -23.536  38.750  36.862  0.00  0.00    +0.137 C 
ATOM     95  CG2 THR A  12     -23.885  40.063  36.169  0.00  0.00    +0.034 C 
BRANCH  94  96
ATOM     96  OG1 THR A  12     -24.742  38.126  37.322  0.00  0.00    -0.382 OA
ATOM     97  HG1 THR A  12     -25.326  37.928  36.547  0.00  0.00    +0.210 HD
ENDBRANCH  94  96
ENDBRANCH  74  94
ENDBRANCH  71  74
ENDBRANCH  69  70
BRANCH  69  98
ATOM     98  CB  ILE A  11     -21.048  33.245  35.997  0.00  0.00    +0.027 C 
ATOM     99  CG2 ILE A  11     -20.326  32.142  36.756  0.00  0.00    +0.002 C 
BRANCH  98 100
ATOM    100  CG1 ILE A  11     -22.482  32.844  35.644  0.00  0.00    +0.002 C 
ATOM    101  CD1 ILE A  11     -22.569  31.629  34.726  0.00  0.00    +0.000 C 
ENDBRANCH  98 100
ENDBRANCH  69  98
ENDBRANCH  67  69
ENDBRANCH  64  65
BRANCH  64 102
ATOM    102  CB  CYS A  10     -22.379  35.784  41.064  0.00  0.00    +0.098 C 
ATOM    103  SG  CYS A  10     -22.849  37.105  39.898  0.00  0.00    -0.080 S 
ENDBRANCH  64 102
ENDBRANCH  61  64
ENDBRANCH  59  60
BRANCH  59 104
ATOM    104  CB  ILE A   9     -22.930  30.527  43.269  0.00  0.00    +0.027 C 
ATOM    105  CG2 ILE A   9     -22.415  29.261  43.955  0.00  0.00    +0.002 C 
BRANCH 104 106
ATOM    106  CG1 ILE A   9     -23.714  31.373  44.280  0.00  0.00    +0.002 C 
ATOM    107  CD1 ILE A   9     -24.294  32.655  43.732  0.00  0.00    +0.000 C 
ENDBRANCH 104 106
ENDBRANCH  59 104
ENDBRANCH  56  59
ENDBRANCH   1  55
BRANCH   1 108
ATOM    108  CB  SER A   8     -19.072  32.095  46.241  0.00  0.00    +0.166 C 
BRANCH 108 109
ATOM    109  OG  SER A   8     -20.380  31.782  46.691  0.00  0.00    -0.380 OA
ATOM    110  H   SER A   8     -20.868  32.620  46.893  0.00  0.00    +0.211 HD
ENDBRANCH 108 109
ENDBRANCH   1 108
TORSDOF 48
REMARK  Name = ../refined-set-2016/1pvn/1pvn_pocket.pdb
REMARK  246 active torsions:
REMARK  status: ('A' for Active; 'I' for Inactive)
REMARK    1  A    between atoms: _1  and  _3
REMARK    2  A    between atoms: _3  and  _4
REMARK    3  A    between atoms: _3  and  _6
REMARK    4  A    between atoms: _9  and  _11
REMARK    5  A    between atoms: _11  and  _12
REMARK    6  A    between atoms: _11  and  _14
REMARK    7  A    between atoms: _14  and  _15
REMARK    8  A    between atoms: _17  and  _19
REMARK    9  A    between atoms: _19  and  _20
REMARK   10  A    between atoms: _23  and  _25
REMARK   11  A    between atoms: _25  and  _26
REMARK   12  A    between atoms: _25  and  _28
REMARK   13  A    between atoms: _28  and  _29
REMARK   14  A    between atoms: _32  and  _34
REMARK   15  A    between atoms: _34  and  _35
REMARK   16  A    between atoms: _34  and  _37
REMARK   17  A    between atoms: _37  and  _38
REMARK   18  A    between atoms: _38  and  _39
REMARK   19  A    between atoms: _41  and  _43
REMARK   20  A    between atoms: _43  and  _44
REMARK   21  A    between atoms: _43  and  _46
REMARK   22  A    between atoms: _46  and  _47
REMARK   23  A    between atoms: _47  and  _48
REMARK   24  A    between atoms: _53  and  _55
REMARK   25  A    between atoms: _55  and  _56
REMARK   26  A    between atoms: _55  and  _58
REMARK   27  A    between atoms: _58  and  _59
REMARK   28  A    between atoms: _61  and  _63
REMARK   29  A    between atoms: _63  and  _64
REMARK   30  A    between atoms: _63  and  _66
REMARK   31  A    between atoms: _69  and  _71
REMARK   32  A    between atoms: _71  and  _72
REMARK   33  A    between atoms: _71  and  _74
REMARK   34  A    between atoms: _74  and  _75
REMARK   35  A    between atoms: _78  and  _80
REMARK   36  A    between atoms: _80  and  _81
REMARK   37  A    between atoms: _80  and  _83
REMARK   38  A    between atoms: _83  and  _84
REMARK   39  A    between atoms: _86  and  _88
REMARK   40  A    between atoms: _88  and  _89
REMARK   41  A    between atoms: _88  and  _91
REMARK   42  A    between atoms: _91  and  _92
REMARK   43  A    between atoms: _94  and  _96
REMARK   44  A    between atoms: _96  and  _97
REMARK   45  A    between atoms: _99  and  _101
REMARK   46  A    between atoms: _101  and  _102
REMARK   47  A    between atoms: _101  and  _104
REMARK   48  A    between atoms: _104  and  _105
REMARK   49  A    between atoms: _110  and  _112
REMARK   50  A    between atoms: _112  and  _113
REMARK   51  A    between atoms: _112  and  _115
REMARK   52  A    between atoms: _115  and  _116
REMARK   53  A    between atoms: _116  and  _117
REMARK   54  A    between atoms: _117  and  _118
REMARK   55  A    between atoms: _118  and  _119
REMARK   56  A    between atoms: _123  and  _125
REMARK   57  A    between atoms: _125  and  _126
REMARK   58  A    between atoms: _125  and  _128
REMARK   59  A    between atoms: _128  and  _129
REMARK   60  A    between atoms: _132  and  _134
REMARK   61  A    between atoms: _134  and  _135
REMARK   62  A    between atoms: _137  and  _139
REMARK   63  A    between atoms: _139  and  _140
REMARK   64  A    between atoms: _139  and  _142
REMARK   65  A    between atoms: _142  and  _143
REMARK   66  A    between atoms: _146  and  _148
REMARK   67  A    between atoms: _148  and  _149
REMARK   68  A    between atoms: _151  and  _153
REMARK   69  A    between atoms: _153  and  _154
REMARK   70  A    between atoms: _156  and  _158
REMARK   71  A    between atoms: _158  and  _159
REMARK   72  A    between atoms: _161  and  _163
REMARK   73  A    between atoms: _163  and  _164
REMARK   74  A    between atoms: _163  and  _166
REMARK   75  A    between atoms: _166  and  _167
REMARK   76  A    between atoms: _169  and  _171
REMARK   77  A    between atoms: _171  and  _172
REMARK   78  A    between atoms: _171  and  _174
REMARK   79  A    between atoms: _174  and  _175
REMARK   80  A    between atoms: _178  and  _180
REMARK   81  A    between atoms: _180  and  _181
REMARK   82  A    between atoms: _180  and  _183
REMARK   83  A    between atoms: _185  and  _187
REMARK   84  A    between atoms: _187  and  _188
REMARK   85  A    between atoms: _187  and  _190
REMARK   86  A    between atoms: _190  and  _191
REMARK   87  A    between atoms: _194  and  _196
REMARK   88  A    between atoms: _196  and  _197
REMARK   89  A    between atoms: _196  and  _199
REMARK   90  A    between atoms: _199  and  _200
REMARK   91  A    between atoms: _203  and  _205
REMARK   92  A    between atoms: _205  and  _206
REMARK   93  A    between atoms: _205  and  _208
REMARK   94  A    between atoms: _208  and  _209
REMARK   95  A    between atoms: _209  and  _210
REMARK   96  A    between atoms: _210  and  _211
REMARK   97  A    between atoms: _220  and  _222
REMARK   98  A    between atoms: _222  and  _223
REMARK   99  A    between atoms: _222  and  _225
REMARK  100  A    between atoms: _225  and  _226
REMARK  101  A    between atoms: _226  and  _227
REMARK  102  A    between atoms: _232  and  _234
REMARK  103  A    between atoms: _234  and  _235
REMARK  104  A    between atoms: _234  and  _237
REMARK  105  A    between atoms: _239  and  _241
REMARK  106  A    between atoms: _241  and  _242
REMARK  107  A    between atoms: _241  and  _244
REMARK  108  A    between atoms: _244  and  _245
REMARK  109  A    between atoms: _247  and  _249
REMARK  110  A    between atoms: _249  and  _250
REMARK  111  A    between atoms: _249  and  _252
REMARK  112  A    between atoms: _252  and  _253
REMARK  113  A    between atoms: _256  and  _258
REMARK  114  A    between atoms: _258  and  _259
REMARK  115  A    between atoms: _261  and  _263
REMARK  116  A    between atoms: _263  and  _264
REMARK  117  A    between atoms: _266  and  _268
REMARK  118  A    between atoms: _268  and  _269
REMARK  119  A    between atoms: _268  and  _271
REMARK  120  A    between atoms: _271  and  _272
REMARK  121  A    between atoms: _275  and  _277
REMARK  122  A    between atoms: _277  and  _278
REMARK  123  A    between atoms: _277  and  _280
REMARK  124  A    between atoms: _283  and  _285
REMARK  125  A    between atoms: _285  and  _286
REMARK  126  A    between atoms: _285  and  _288
REMARK  127  A    between atoms: _288  and  _289
REMARK  128  A    between atoms: _292  and  _294
REMARK  129  A    between atoms: _294  and  _295
REMARK  130  A    between atoms: _294  and  _297
REMARK  131  A    between atoms: _297  and  _298
REMARK  132  A    between atoms: _298  and  _299
REMARK  133  A    between atoms: _301  and  _303
REMARK  134  A    between atoms: _303  and  _304
REMARK  135  A    between atoms: _303  and  _306
REMARK  136  A    between atoms: _306  and  _307
REMARK  137  A    between atoms: _310  and  _312
REMARK  138  A    between atoms: _312  and  _313
REMARK  139  A    between atoms: _315  and  _317
REMARK  140  A    between atoms: _317  and  _318
REMARK  141  A    between atoms: _317  and  _320
REMARK  142  A    between atoms: _320  and  _321
REMARK  143  A    between atoms: _321  and  _322
REMARK  144  A    between atoms: _322  and  _323
REMARK  145  A    between atoms: _332  and  _334
REMARK  146  A    between atoms: _334  and  _335
REMARK  147  A    between atoms: _334  and  _337
REMARK  148  A    between atoms: _337  and  _338
REMARK  149  A    between atoms: _343  and  _344
REMARK  150  A    between atoms: _346  and  _348
REMARK  151  A    between atoms: _348  and  _349
REMARK  152  A    between atoms: _348  and  _351
REMARK  153  A    between atoms: _351  and  _352
REMARK  154  A    between atoms: _358  and  _360
REMARK  155  A    between atoms: _360  and  _361
REMARK  156  A    between atoms: _364  and  _366
REMARK  157  A    between atoms: _366  and  _367
REMARK  158  A    between atoms: _366  and  _369
REMARK  159  A    between atoms: _369  and  _370
REMARK  160  A    between atoms: _375  and  _376
REMARK  161  A    between atoms: _378  and  _380
REMARK  162  A    between atoms: _380  and  _381
REMARK  163  A    between atoms: _380  and  _383
REMARK  164  A    between atoms: _383  and  _384
REMARK  165  A    between atoms: _394  and  _396
REMARK  166  A    between atoms: _396  and  _397
REMARK  167  A    between atoms: _399  and  _401
REMARK  168  A    between atoms: _401  and  _402
REMARK  169  A    between atoms: _401  and  _404
REMARK  170  A    between atoms: _404  and  _405
REMARK  171  A    between atoms: _405  and  _406
REMARK  172  A    between atoms: _409  and  _411
REMARK  173  A    between atoms: _411  and  _412
REMARK  174  A    between atoms: _414  and  _416
REMARK  175  A    between atoms: _416  and  _417
REMARK  176  A    between atoms: _416  and  _419
REMARK  177  A    between atoms: _419  and  _420
REMARK  178  A    between atoms: _422  and  _424
REMARK  179  A    between atoms: _424  and  _425
REMARK  180  A    between atoms: _424  and  _427
REMARK  181  A    between atoms: _427  and  _428
REMARK  182  A    between atoms: _430  and  _432
REMARK  183  A    between atoms: _432  and  _433
REMARK  184  A    between atoms: _436  and  _438
REMARK  185  A    between atoms: _438  and  _439
REMARK  186  A    between atoms: _438  and  _441
REMARK  187  A    between atoms: _441  and  _442
REMARK  188  A    between atoms: _442  and  _443
REMARK  189  A    between atoms: _443  and  _444
REMARK  190  A    between atoms: _453  and  _455
REMARK  191  A    between atoms: _455  and  _456
REMARK  192  A    between atoms: _455  and  _458
REMARK  193  A    between atoms: _458  and  _459
REMARK  194  A    between atoms: _464  and  _466
REMARK  195  A    between atoms: _466  and  _467
REMARK  196  A    between atoms: _466  and  _469
REMARK  197  A    between atoms: _469  and  _470
REMARK  198  A    between atoms: _470  and  _471
REMARK  199  A    between atoms: _471  and  _472
REMARK  200  A    between atoms: _481  and  _483
REMARK  201  A    between atoms: _483  and  _484
REMARK  202  A    between atoms: _483  and  _486
REMARK  203  A    between atoms: _486  and  _487
REMARK  204  A    between atoms: _492  and  _493
REMARK  205  A    between atoms: _495  and  _497
REMARK  206  A    between atoms: _497  and  _498
REMARK  207  A    between atoms: _497  and  _500
REMARK  208  A    between atoms: _500  and  _501
REMARK  209  A    between atoms: _504  and  _506
REMARK  210  A    between atoms: _506  and  _507
REMARK  211  A    between atoms: _506  and  _509
REMARK  212  A    between atoms: _509  and  _510
REMARK  213  A    between atoms: _510  and  _511
REMARK  214  A    between atoms: _514  and  _516
REMARK  215  A    between atoms: _516  and  _517
REMARK  216  A    between atoms: _516  and  _519
REMARK  217  A    between atoms: _519  and  _520
REMARK  218  A    between atoms: _520  and  _521
REMARK  219  A    between atoms: _524  and  _526
REMARK  220  A    between atoms: _526  and  _527
REMARK  221  A    between atoms: _529  and  _531
REMARK  222  A    between atoms: _531  and  _532
REMARK  223  A    between atoms: _531  and  _534
REMARK  224  A    between atoms: _537  and  _539
REMARK  225  A    between atoms: _539  and  _540
REMARK  226  A    between atoms: _539  and  _542
REMARK  227  A    between atoms: _542  and  _543
REMARK  228  A    between atoms: _546  and  _548
REMARK  229  A    between atoms: _548  and  _549
REMARK  230  A    between atoms: _548  and  _551
REMARK  231  A    between atoms: _554  and  _556
REMARK  232  A    between atoms: _556  and  _557
REMARK  233  A    between atoms: _556  and  _559
REMARK  234  A    between atoms: _559  and  _560
REMARK  235  A    between atoms: _560  and  _561
REMARK  236  A    between atoms: _564  and  _566
REMARK  237  A    between atoms: _566  and  _567
REMARK  238  A    between atoms: _566  and  _569
REMARK  239  A    between atoms: _569  and  _570
REMARK  240  A    between atoms: _575  and  _577
REMARK  241  A    between atoms: _577  and  _578
REMARK  242  A    between atoms: _577  and  _580
REMARK  243  A    between atoms: _580  and  _581
REMARK  244  A    between atoms: _584  and  _586
REMARK  245  A    between atoms: _586  and  _587
REMARK  246  A    between atoms: _586  and  _589
REMARK                            x       y       z     vdW  Elec       q    Type
REMARK                         _______ _______ _______ _____ _____    ______ ____
ROOT
ATOM      1  CB  GLN A   1     -16.667  43.220  46.702  0.00  0.00    +0.035 C 
ENDROOT
BRANCH   1   2
ATOM      2  CA  GLN A   1     -16.462  44.527  45.923  0.00  0.00    +0.134 C 
BRANCH   2   3
ATOM      3  N   GLN A   1     -15.677  44.278  44.713  0.00  0.00    -0.239 NA
ATOM      4  H   GLN A   1     -15.360  43.310  44.501  0.00  0.00    +0.142 HD
ENDBRANCH   2   3
BRANCH   2   5
ATOM      5  C   GLN A   1     -15.904  45.598  46.861  0.00  0.00    +0.224 C 
ATOM      6  O   GLN A   1     -16.656  46.445  47.339  0.00  0.00    -0.287 OA
ENDBRANCH   2   5
ENDBRANCH   1   2
BRANCH   1   7
ATOM      7  CG  GLN A   1     -17.674  43.329  47.849  0.00  0.00    +0.087 C 
BRANCH   7   8
ATOM      8  CD  GLN A   1     -19.115  43.491  47.374  0.00  0.00    +0.219 C 
ATOM      9  OE1 GLN A   1     -20.004  43.847  48.157  0.00  0.00    -0.275 OA
ATOM     10  NE2 GLN A   1     -19.356  43.214  46.097  0.00  0.00    -0.329 N 
ATOM     11 HE21 GLN A   1     -20.322  43.293  45.721  0.00  0.00    +0.145 HD
ATOM     12 HE22 GLN A   1     -18.578  42.918  45.473  0.00  0.00    +0.145 HD
ENDBRANCH   7   8
ENDBRANCH   1   7
TORSDOF 5
REMARK  Name = ../refined-set-2016/1pvn/1pvn_pocket.pdb
REMARK  246 active torsions:
REMARK  status: ('A' for Active; 'I' for Inactive)
REMARK    1  A    between atoms: _1  and  _3
REMARK    2  A    between atoms: _3  and  _4
REMARK    3  A    between atoms: _3  and  _6
REMARK    4  A    between atoms: _9  and  _11
REMARK    5  A    between atoms: _11  and  _12
REMARK    6  A    between atoms: _11  and  _14
REMARK    7  A    between atoms: _14  and  _15
REMARK    8  A    between atoms: _17  and  _19
REMARK    9  A    between atoms: _19  and  _20
REMARK   10  A    between atoms: _23  and  _25
REMARK   11  A    between atoms: _25  and  _26
REMARK   12  A    between atoms: _25  and  _28
REMARK   13  A    between atoms: _28  and  _29
REMARK   14  A    between atoms: _32  and  _34
REMARK   15  A    between atoms: _34  and  _35
REMARK   16  A    between atoms: _34  and  _37
REMARK   17  A    between atoms: _37  and  _38
REMARK   18  A    between atoms: _38  and  _39
REMARK   19  A    between atoms: _41  and  _43
REMARK   20  A    between atoms: _43  and  _44
REMARK   21  A    between atoms: _43  and  _46
REMARK   22  A    between atoms: _46  and  _47
REMARK   23  A    between atoms: _47  and  _48
REMARK   24  A    between atoms: _53  and  _55
REMARK   25  A    between atoms: _55  and  _56
REMARK   26  A    between atoms: _55  and  _58
REMARK   27  A    between atoms: _58  and  _59
REMARK   28  A    between atoms: _61  and  _63
REMARK   29  A    between atoms: _63  and  _64
REMARK   30  A    between atoms: _63  and  _66
REMARK   31  A    between atoms: _69  and  _71
REMARK   32  A    between atoms: _71  and  _72
REMARK   33  A    between atoms: _71  and  _74
REMARK   34  A    between atoms: _74  and  _75
REMARK   35  A    between atoms: _78  and  _80
REMARK   36  A    between atoms: _80  and  _81
REMARK   37  A    between atoms: _80  and  _83
REMARK   38  A    between atoms: _83  and  _84
REMARK   39  A    between atoms: _86  and  _88
REMARK   40  A    between atoms: _88  and  _89
REMARK   41  A    between atoms: _88  and  _91
REMARK   42  A    between atoms: _91  and  _92
REMARK   43  A    between atoms: _94  and  _96
REMARK   44  A    between atoms: _96  and  _97
REMARK   45  A    between atoms: _99  and  _101
REMARK   46  A    between atoms: _101  and  _102
REMARK   47  A    between atoms: _101  and  _104
REMARK   48  A    between atoms: _104  and  _105
REMARK   49  A    between atoms: _110  and  _112
REMARK   50  A    between atoms: _112  and  _113
REMARK   51  A    between atoms: _112  and  _115
REMARK   52  A    between atoms: _115  and  _116
REMARK   53  A    between atoms: _116  and  _117
REMARK   54  A    between atoms: _117  and  _118
REMARK   55  A    between atoms: _118  and  _119
REMARK   56  A    between atoms: _123  and  _125
REMARK   57  A    between atoms: _125  and  _126
REMARK   58  A    between atoms: _125  and  _128
REMARK   59  A    between atoms: _128  and  _129
REMARK   60  A    between atoms: _132  and  _134
REMARK   61  A    between atoms: _134  and  _135
REMARK   62  A    between atoms: _137  and  _139
REMARK   63  A    between atoms: _139  and  _140
REMARK   64  A    between atoms: _139  and  _142
REMARK   65  A    between atoms: _142  and  _143
REMARK   66  A    between atoms: _146  and  _148
REMARK   67  A    between atoms: _148  and  _149
REMARK   68  A    between atoms: _151  and  _153
REMARK   69  A    between atoms: _153  and  _154
REMARK   70  A    between atoms: _156  and  _158
REMARK   71  A    between atoms: _158  and  _159
REMARK   72  A    between atoms: _161  and  _163
REMARK   73  A    between atoms: _163  and  _164
REMARK   74  A    between atoms: _163  and  _166
REMARK   75  A    between atoms: _166  and  _167
REMARK   76  A    between atoms: _169  and  _171
REMARK   77  A    between atoms: _171  and  _172
REMARK   78  A    between atoms: _171  and  _174
REMARK   79  A    between atoms: _174  and  _175
REMARK   80  A    between atoms: _178  and  _180
REMARK   81  A    between atoms: _180  and  _181
REMARK   82  A    between atoms: _180  and  _183
REMARK   83  A    between atoms: _185  and  _187
REMARK   84  A    between atoms: _187  and  _188
REMARK   85  A    between atoms: _187  and  _190
REMARK   86  A    between atoms: _190  and  _191
REMARK   87  A    between atoms: _194  and  _196
REMARK   88  A    between atoms: _196  and  _197
REMARK   89  A    between atoms: _196  and  _199
REMARK   90  A    between atoms: _199  and  _200
REMARK   91  A    between atoms: _203  and  _205
REMARK   92  A    between atoms: _205  and  _206
REMARK   93  A    between atoms: _205  and  _208
REMARK   94  A    between atoms: _208  and  _209
REMARK   95  A    between atoms: _209  and  _210
REMARK   96  A    between atoms: _210  and  _211
REMARK   97  A    between atoms: _220  and  _222
REMARK   98  A    between atoms: _222  and  _223
REMARK   99  A    between atoms: _222  and  _225
REMARK  100  A    between atoms: _225  and  _226
REMARK  101  A    between atoms: _226  and  _227
REMARK  102  A    between atoms: _232  and  _234
REMARK  103  A    between atoms: _234  and  _235
REMARK  104  A    between atoms: _234  and  _237
REMARK  105  A    between atoms: _239  and  _241
REMARK  106  A    between atoms: _241  and  _242
REMARK  107  A    between atoms: _241  and  _244
REMARK  108  A    between atoms: _244  and  _245
REMARK  109  A    between atoms: _247  and  _249
REMARK  110  A    between atoms: _249  and  _250
REMARK  111  A    between atoms: _249  and  _252
REMARK  112  A    between atoms: _252  and  _253
REMARK  113  A    between atoms: _256  and  _258
REMARK  114  A    between atoms: _258  and  _259
REMARK  115  A    between atoms: _261  and  _263
REMARK  116  A    between atoms: _263  and  _264
REMARK  117  A    between atoms: _266  and  _268
REMARK  118  A    between atoms: _268  and  _269
REMARK  119  A    between atoms: _268  and  _271
REMARK  120  A    between atoms: _271  and  _272
REMARK  121  A    between atoms: _275  and  _277
REMARK  122  A    between atoms: _277  and  _278
REMARK  123  A    between atoms: _277  and  _280
REMARK  124  A    between atoms: _283  and  _285
REMARK  125  A    between atoms: _285  and  _286
REMARK  126  A    between atoms: _285  and  _288
REMARK  127  A    between atoms: _288  and  _289
REMARK  128  A    between atoms: _292  and  _294
REMARK  129  A    between atoms: _294  and  _295
REMARK  130  A    between atoms: _294  and  _297
REMARK  131  A    between atoms: _297  and  _298
REMARK  132  A    between atoms: _298  and  _299
REMARK  133  A    between atoms: _301  and  _303
REMARK  134  A    between atoms: _303  and  _304
REMARK  135  A    between atoms: _303  and  _306
REMARK  136  A    between atoms: _306  and  _307
REMARK  137  A    between atoms: _310  and  _312
REMARK  138  A    between atoms: _312  and  _313
REMARK  139  A    between atoms: _315  and  _317
REMARK  140  A    between atoms: _317  and  _318
REMARK  141  A    between atoms: _317  and  _320
REMARK  142  A    between atoms: _320  and  _321
REMARK  143  A    between atoms: _321  and  _322
REMARK  144  A    between atoms: _322  and  _323
REMARK  145  A    between atoms: _332  and  _334
REMARK  146  A    between atoms: _334  and  _335
REMARK  147  A    between atoms: _334  and  _337
REMARK  148  A    between atoms: _337  and  _338
REMARK  149  A    between atoms: _343  and  _344
REMARK  150  A    between atoms: _346  and  _348
REMARK  151  A    between atoms: _348  and  _349
REMARK  152  A    between atoms: _348  and  _351
REMARK  153  A    between atoms: _351  and  _352
REMARK  154  A    between atoms: _358  and  _360
REMARK  155  A    between atoms: _360  and  _361
REMARK  156  A    between atoms: _364  and  _366
REMARK  157  A    between atoms: _366  and  _367
REMARK  158  A    between atoms: _366  and  _369
REMARK  159  A    between atoms: _369  and  _370
REMARK  160  A    between atoms: _375  and  _376
REMARK  161  A    between atoms: _378  and  _380
REMARK  162  A    between atoms: _380  and  _381
REMARK  163  A    between atoms: _380  and  _383
REMARK  164  A    between atoms: _383  and  _384
REMARK  165  A    between atoms: _394  and  _396
REMARK  166  A    between atoms: _396  and  _397
REMARK  167  A    between atoms: _399  and  _401
REMARK  168  A    between atoms: _401  and  _402
REMARK  169  A    between atoms: _401  and  _404
REMARK  170  A    between atoms: _404  and  _405
REMARK  171  A    between atoms: _405  and  _406
REMARK  172  A    between atoms: _409  and  _411
REMARK  173  A    between atoms: _411  and  _412
REMARK  174  A    between atoms: _414  and  _416
REMARK  175  A    between atoms: _416  and  _417
REMARK  176  A    between atoms: _416  and  _419
REMARK  177  A    between atoms: _419  and  _420
REMARK  178  A    between atoms: _422  and  _424
REMARK  179  A    between atoms: _424  and  _425
REMARK  180  A    between atoms: _424  and  _427
REMARK  181  A    between atoms: _427  and  _428
REMARK  182  A    between atoms: _430  and  _432
REMARK  183  A    between atoms: _432  and  _433
REMARK  184  A    between atoms: _436  and  _438
REMARK  185  A    between atoms: _438  and  _439
REMARK  186  A    between atoms: _438  and  _441
REMARK  187  A    between atoms: _441  and  _442
REMARK  188  A    between atoms: _442  and  _443
REMARK  189  A    between atoms: _443  and  _444
REMARK  190  A    between atoms: _453  and  _455
REMARK  191  A    between atoms: _455  and  _456
REMARK  192  A    between atoms: _455  and  _458
REMARK  193  A    between atoms: _458  and  _459
REMARK  194  A    between atoms: _464  and  _466
REMARK  195  A    between atoms: _466  and  _467
REMARK  196  A    between atoms: _466  and  _469
REMARK  197  A    between atoms: _469  and  _470
REMARK  198  A    between atoms: _470  and  _471
REMARK  199  A    between atoms: _471  and  _472
REMARK  200  A    between atoms: _481  and  _483
REMARK  201  A    between atoms: _483  and  _484
REMARK  202  A    between atoms: _483  and  _486
REMARK  203  A    between atoms: _486  and  _487
REMARK  204  A    between atoms: _492  and  _493
REMARK  205  A    between atoms: _495  and  _497
REMARK  206  A    between atoms: _497  and  _498
REMARK  207  A    between atoms: _497  and  _500
REMARK  208  A    between atoms: _500  and  _501
REMARK  209  A    between atoms: _504  and  _506
REMARK  210  A    between atoms: _506  and  _507
REMARK  211  A    between atoms: _506  and  _509
REMARK  212  A    between atoms: _509  and  _510
REMARK  213  A    between atoms: _510  and  _511
REMARK  214  A    between atoms: _514  and  _516
REMARK  215  A    between atoms: _516  and  _517
REMARK  216  A    between atoms: _516  and  _519
REMARK  217  A    between atoms: _519  and  _520
REMARK  218  A    between atoms: _520  and  _521
REMARK  219  A    between atoms: _524  and  _526
REMARK  220  A    between atoms: _526  and  _527
REMARK  221  A    between atoms: _529  and  _531
REMARK  222  A    between atoms: _531  and  _532
REMARK  223  A    between atoms: _531  and  _534
REMARK  224  A    between atoms: _537  and  _539
REMARK  225  A    between atoms: _539  and  _540
REMARK  226  A    between atoms: _539  and  _542
REMARK  227  A    between atoms: _542  and  _543
REMARK  228  A    between atoms: _546  and  _548
REMARK  229  A    between atoms: _548  and  _549
REMARK  230  A    between atoms: _548  and  _551
REMARK  231  A    between atoms: _554  and  _556
REMARK  232  A    between atoms: _556  and  _557
REMARK  233  A    between atoms: _556  and  _559
REMARK  234  A    between atoms: _559  and  _560
REMARK  235  A    between atoms: _560  and  _561
REMARK  236  A    between atoms: _564  and  _566
REMARK  237  A    between atoms: _566  and  _567
REMARK  238  A    between atoms: _566  and  _569
REMARK  239  A    between atoms: _569  and  _570
REMARK  240  A    between atoms: _575  and  _577
REMARK  241  A    between atoms: _577  and  _578
REMARK  242  A    between atoms: _577  and  _580
REMARK  243  A    between atoms: _580  and  _581
REMARK  244  A    between atoms: _584  and  _586
REMARK  245  A    between atoms: _586  and  _587
REMARK  246  A    between atoms: _586  and  _589
REMARK                            x       y       z     vdW  Elec       q    Type
REMARK                         _______ _______ _______ _____ _____    ______ ____
ROOT
ATOM      1  C   ASP A   3     -22.461  41.027  48.813  0.00  0.00    +0.241 C 
ATOM      2  N   GLY A   4     -21.963  39.887  49.290  0.00  0.00    -0.295 N 
ATOM      3  H   GLY A   4     -22.119  39.640  50.288  0.00  0.00    +0.150 HD
ATOM      4  O   ASP A   3     -22.289  41.411  47.657  0.00  0.00    -0.273 OA
ENDROOT
BRANCH   1   5
ATOM      5  CA  ASP A   3     -23.270  41.861  49.801  0.00  0.00    +0.160 C 
BRANCH   5   8
ATOM      6  C   SER A   2     -22.145  43.325  51.361  0.00  0.00    +0.243 C 
ATOM      7  O   SER A   2     -22.065  42.431  52.210  0.00  0.00    -0.273 OA
ATOM      8  N   ASP A   3     -22.677  43.133  50.162  0.00  0.00    -0.296 N 
ATOM      9  H   ASP A   3     -22.669  43.908  49.469  0.00  0.00    +0.150 HD
BRANCH   6  10
ATOM     10  CA  SER A   2     -21.618  44.728  51.641  0.00  0.00    +0.178 C 
BRANCH  10  12
ATOM     11  C   CYS A   1     -23.676  45.872  52.220  0.00  0.00    +0.239 C 
ATOM     12  N   SER A   2     -22.549  45.283  52.615  0.00  0.00    -0.295 N 
ATOM     13  H   SER A   2     -22.331  45.218  53.630  0.00  0.00    +0.150 HD
ATOM     14  O   CYS A   1     -23.960  46.043  51.033  0.00  0.00    -0.274 OA
BRANCH  11  15
ATOM     15  CA  CYS A   1     -24.610  46.362  53.318  0.00  0.00    +0.156 C 
BRANCH  15  16
ATOM     16  CB  CYS A   1     -25.887  45.514  53.332  0.00  0.00    +0.095 C 
ATOM     17  SG  CYS A   1     -25.669  43.725  53.188  0.00  0.00    -0.080 S 
ENDBRANCH  15  16
BRANCH  15  18
ATOM     18  N   CYS A   1     -24.987  47.756  53.159  0.00  0.00    -0.237 NA
ATOM     19  H   CYS A   1     -25.517  48.039  52.310  0.00  0.00    +0.142 HD
ENDBRANCH  15  18
ENDBRANCH  11  15
ENDBRANCH  10  12
BRANCH  10  20
ATOM     20  CB  SER A   2     -20.200  44.642  52.201  0.00  0.00    +0.166 C 
BRANCH  20  21
ATOM     21  OG  SER A   2     -19.332  44.133  51.203  0.00  0.00    -0.380 OA
ATOM     22  H   SER A   2     -19.637  43.231  50.931  0.00  0.00    +0.211 HD
ENDBRANCH  20  21
ENDBRANCH  10  20
ENDBRANCH   6  10
ENDBRANCH   5   8
BRANCH   5  23
ATOM     23  CB  ASP A   3     -24.680  42.133  49.256  0.00  0.00    +0.143 C 
BRANCH  23  24
ATOM     24  CG  ASP A   3     -25.381  40.882  48.768  0.00  0.00    +0.367 C 
ATOM     25  OD2 ASP A   3     -25.000  39.772  49.193  0.00  0.00    -0.246 OA
ATOM     26  OD1 ASP A   3     -26.330  41.024  47.967  0.00  0.00    -0.246 OA
ENDBRANCH  23  24
ENDBRANCH   5  23
ENDBRANCH   1   5
BRANCH   2  27
ATOM     27  CA  GLY A   4     -21.205  38.982  48.440  0.00  0.00    +0.176 C 
BRANCH  27  28
ATOM     28  C   GLY A   4     -19.694  39.136  48.449  0.00  0.00    +0.243 C 
ATOM     29  O   GLY A   4     -19.160  40.190  48.800  0.00  0.00    -0.273 OA
ATOM     30  N   GLY A   5     -19.001  38.064  48.068  0.00  0.00    -0.295 N 
ATOM     31  H   GLY A   5     -19.504  37.189  47.819  0.00  0.00    +0.150 HD
BRANCH  30  32
ATOM     32  CA  GLY A   5     -17.553  38.103  47.996  0.00  0.00    +0.176 C 
BRANCH  32  33
ATOM     33  C   GLY A   5     -16.757  37.805  49.253  0.00  0.00    +0.243 C 
ATOM     34  N   ILE A   6     -17.423  37.607  50.386  0.00  0.00    -0.297 N 
ATOM     35  H   ILE A   6     -18.461  37.675  50.395  0.00  0.00    +0.150 HD
ATOM     36  O   GLY A   5     -15.528  37.768  49.195  0.00  0.00    -0.273 OA
BRANCH  34  37
ATOM     37  CA  ILE A   6     -16.704  37.294  51.619  0.00  0.00    +0.149 C 
BRANCH  37  38
ATOM     38  C   ILE A   6     -16.190  35.855  51.546  0.00  0.00    +0.241 C 
ATOM     39  N   VAL A   7     -14.871  35.699  51.572  0.00  0.00    -0.298 N 
ATOM     40  H   VAL A   7     -14.263  36.539  51.648  0.00  0.00    +0.150 HD
ATOM     41  O   ILE A   6     -16.974  34.906  51.468  0.00  0.00    -0.273 OA
BRANCH  39  42
ATOM     42  CA  VAL A   7     -14.256  34.383  51.497  0.00  0.00    +0.137 C 
BRANCH  42  43
ATOM     43  CB  VAL A   7     -13.173  34.341  50.398  0.00  0.00    +0.026 C 
ATOM     44  CG2 VAL A   7     -12.568  32.944  50.312  0.00  0.00    +0.002 C 
ATOM     45  CG1 VAL A   7     -13.775  34.748  49.061  0.00  0.00    +0.002 C 
ENDBRANCH  42  43
BRANCH  42  46
ATOM     46  C   VAL A   7     -13.614  33.989  52.822  0.00  0.00    +0.227 C 
ATOM     47  O   VAL A   7     -13.792  32.869  53.300  0.00  0.00    -0.286 OA
ENDBRANCH  42  46
ENDBRANCH  39  42
ENDBRANCH  37  38
BRANCH  37  48
ATOM     48  CB  ILE A   6     -17.610  37.424  52.864  0.00  0.00    +0.027 C 
ATOM     49  CG2 ILE A   6     -16.846  36.979  54.109  0.00  0.00    +0.002 C 
BRANCH  48  50
ATOM     50  CG1 ILE A   6     -18.093  38.867  53.019  0.00  0.00    +0.002 C 
ATOM     51  CD1 ILE A   6     -16.979  39.873  53.293  0.00  0.00    +0.000 C 
ENDBRANCH  48  50
ENDBRANCH  37  48
ENDBRANCH  34  37
ENDBRANCH  32  33
ENDBRANCH  30  32
ENDBRANCH  27  28
ENDBRANCH   2  27
TORSDOF 22
REMARK  Name = ../refined-set-2016/1pvn/1pvn_pocket.pdb
REMARK  246 active torsions:
REMARK  status: ('A' for Active; 'I' for Inactive)
REMARK    1  A    between atoms: _1  and  _3
REMARK    2  A    between atoms: _3  and  _4
REMARK    3  A    between atoms: _3  and  _6
REMARK    4  A    between atoms: _9  and  _11
REMARK    5  A    between atoms: _11  and  _12
REMARK    6  A    between atoms: _11  and  _14
REMARK    7  A    between atoms: _14  and  _15
REMARK    8  A    between atoms: _17  and  _19
REMARK    9  A    between atoms: _19  and  _20
REMARK   10  A    between atoms: _23  and  _25
REMARK   11  A    between atoms: _25  and  _26
REMARK   12  A    between atoms: _25  and  _28
REMARK   13  A    between atoms: _28  and  _29
REMARK   14  A    between atoms: _32  and  _34
REMARK   15  A    between atoms: _34  and  _35
REMARK   16  A    between atoms: _34  and  _37
REMARK   17  A    between atoms: _37  and  _38
REMARK   18  A    between atoms: _38  and  _39
REMARK   19  A    between atoms: _41  and  _43
REMARK   20  A    between atoms: _43  and  _44
REMARK   21  A    between atoms: _43  and  _46
REMARK   22  A    between atoms: _46  and  _47
REMARK   23  A    between atoms: _47  and  _48
REMARK   24  A    between atoms: _53  and  _55
REMARK   25  A    between atoms: _55  and  _56
REMARK   26  A    between atoms: _55  and  _58
REMARK   27  A    between atoms: _58  and  _59
REMARK   28  A    between atoms: _61  and  _63
REMARK   29  A    between atoms: _63  and  _64
REMARK   30  A    between atoms: _63  and  _66
REMARK   31  A    between atoms: _69  and  _71
REMARK   32  A    between atoms: _71  and  _72
REMARK   33  A    between atoms: _71  and  _74
REMARK   34  A    between atoms: _74  and  _75
REMARK   35  A    between atoms: _78  and  _80
REMARK   36  A    between atoms: _80  and  _81
REMARK   37  A    between atoms: _80  and  _83
REMARK   38  A    between atoms: _83  and  _84
REMARK   39  A    between atoms: _86  and  _88
REMARK   40  A    between atoms: _88  and  _89
REMARK   41  A    between atoms: _88  and  _91
REMARK   42  A    between atoms: _91  and  _92
REMARK   43  A    between atoms: _94  and  _96
REMARK   44  A    between atoms: _96  and  _97
REMARK   45  A    between atoms: _99  and  _101
REMARK   46  A    between atoms: _101  and  _102
REMARK   47  A    between atoms: _101  and  _104
REMARK   48  A    between atoms: _104  and  _105
REMARK   49  A    between atoms: _110  and  _112
REMARK   50  A    between atoms: _112  and  _113
REMARK   51  A    between atoms: _112  and  _115
REMARK   52  A    between atoms: _115  and  _116
REMARK   53  A    between atoms: _116  and  _117
REMARK   54  A    between atoms: _117  and  _118
REMARK   55  A    between atoms: _118  and  _119
REMARK   56  A    between atoms: _123  and  _125
REMARK   57  A    between atoms: _125  and  _126
REMARK   58  A    between atoms: _125  and  _128
REMARK   59  A    between atoms: _128  and  _129
REMARK   60  A    between atoms: _132  and  _134
REMARK   61  A    between atoms: _134  and  _135
REMARK   62  A    between atoms: _137  and  _139
REMARK   63  A    between atoms: _139  and  _140
REMARK   64  A    between atoms: _139  and  _142
REMARK   65  A    between atoms: _142  and  _143
REMARK   66  A    between atoms: _146  and  _148
REMARK   67  A    between atoms: _148  and  _149
REMARK   68  A    between atoms: _151  and  _153
REMARK   69  A    between atoms: _153  and  _154
REMARK   70  A    between atoms: _156  and  _158
REMARK   71  A    between atoms: _158  and  _159
REMARK   72  A    between atoms: _161  and  _163
REMARK   73  A    between atoms: _163  and  _164
REMARK   74  A    between atoms: _163  and  _166
REMARK   75  A    between atoms: _166  and  _167
REMARK   76  A    between atoms: _169  and  _171
REMARK   77  A    between atoms: _171  and  _172
REMARK   78  A    between atoms: _171  and  _174
REMARK   79  A    between atoms: _174  and  _175
REMARK   80  A    between atoms: _178  and  _180
REMARK   81  A    between atoms: _180  and  _181
REMARK   82  A    between atoms: _180  and  _183
REMARK   83  A    between atoms: _185  and  _187
REMARK   84  A    between atoms: _187  and  _188
REMARK   85  A    between atoms: _187  and  _190
REMARK   86  A    between atoms: _190  and  _191
REMARK   87  A    between atoms: _194  and  _196
REMARK   88  A    between atoms: _196  and  _197
REMARK   89  A    between atoms: _196  and  _199
REMARK   90  A    between atoms: _199  and  _200
REMARK   91  A    between atoms: _203  and  _205
REMARK   92  A    between atoms: _205  and  _206
REMARK   93  A    between atoms: _205  and  _208
REMARK   94  A    between atoms: _208  and  _209
REMARK   95  A    between atoms: _209  and  _210
REMARK   96  A    between atoms: _210  and  _211
REMARK   97  A    between atoms: _220  and  _222
REMARK   98  A    between atoms: _222  and  _223
REMARK   99  A    between atoms: _222  and  _225
REMARK  100  A    between atoms: _225  and  _226
REMARK  101  A    between atoms: _226  and  _227
REMARK  102  A    between atoms: _232  and  _234
REMARK  103  A    between atoms: _234  and  _235
REMARK  104  A    between atoms: _234  and  _237
REMARK  105  A    between atoms: _239  and  _241
REMARK  106  A    between atoms: _241  and  _242
REMARK  107  A    between atoms: _241  and  _244
REMARK  108  A    between atoms: _244  and  _245
REMARK  109  A    between atoms: _247  and  _249
REMARK  110  A    between atoms: _249  and  _250
REMARK  111  A    between atoms: _249  and  _252
REMARK  112  A    between atoms: _252  and  _253
REMARK  113  A    between atoms: _256  and  _258
REMARK  114  A    between atoms: _258  and  _259
REMARK  115  A    between atoms: _261  and  _263
REMARK  116  A    between atoms: _263  and  _264
REMARK  117  A    between atoms: _266  and  _268
REMARK  118  A    between atoms: _268  and  _269
REMARK  119  A    between atoms: _268  and  _271
REMARK  120  A    between atoms: _271  and  _272
REMARK  121  A    between atoms: _275  and  _277
REMARK  122  A    between atoms: _277  and  _278
REMARK  123  A    between atoms: _277  and  _280
REMARK  124  A    between atoms: _283  and  _285
REMARK  125  A    between atoms: _285  and  _286
REMARK  126  A    between atoms: _285  and  _288
REMARK  127  A    between atoms: _288  and  _289
REMARK  128  A    between atoms: _292  and  _294
REMARK  129  A    between atoms: _294  and  _295
REMARK  130  A    between atoms: _294  and  _297
REMARK  131  A    between atoms: _297  and  _298
REMARK  132  A    between atoms: _298  and  _299
REMARK  133  A    between atoms: _301  and  _303
REMARK  134  A    between atoms: _303  and  _304
REMARK  135  A    between atoms: _303  and  _306
REMARK  136  A    between atoms: _306  and  _307
REMARK  137  A    between atoms: _310  and  _312
REMARK  138  A    between atoms: _312  and  _313
REMARK  139  A    between atoms: _315  and  _317
REMARK  140  A    between atoms: _317  and  _318
REMARK  141  A    between atoms: _317  and  _320
REMARK  142  A    between atoms: _320  and  _321
REMARK  143  A    between atoms: _321  and  _322
REMARK  144  A    between atoms: _322  and  _323
REMARK  145  A    between atoms: _332  and  _334
REMARK  146  A    between atoms: _334  and  _335
REMARK  147  A    between atoms: _334  and  _337
REMARK  148  A    between atoms: _337  and  _338
REMARK  149  A    between atoms: _343  and  _344
REMARK  150  A    between atoms: _346  and  _348
REMARK  151  A    between atoms: _348  and  _349
REMARK  152  A    between atoms: _348  and  _351
REMARK  153  A    between atoms: _351  and  _352
REMARK  154  A    between atoms: _358  and  _360
REMARK  155  A    between atoms: _360  and  _361
REMARK  156  A    between atoms: _364  and  _366
REMARK  157  A    between atoms: _366  and  _367
REMARK  158  A    between atoms: _366  and  _369
REMARK  159  A    between atoms: _369  and  _370
REMARK  160  A    between atoms: _375  and  _376
REMARK  161  A    between atoms: _378  and  _380
REMARK  162  A    between atoms: _380  and  _381
REMARK  163  A    between atoms: _380  and  _383
REMARK  164  A    between atoms: _383  and  _384
REMARK  165  A    between atoms: _394  and  _396
REMARK  166  A    between atoms: _396  and  _397
REMARK  167  A    between atoms: _399  and  _401
REMARK  168  A    between atoms: _401  and  _402
REMARK  169  A    between atoms: _401  and  _404
REMARK  170  A    between atoms: _404  and  _405
REMARK  171  A    between atoms: _405  and  _406
REMARK  172  A    between atoms: _409  and  _411
REMARK  173  A    between atoms: _411  and  _412
REMARK  174  A    between atoms: _414  and  _416
REMARK  175  A    between atoms: _416  and  _417
REMARK  176  A    between atoms: _416  and  _419
REMARK  177  A    between atoms: _419  and  _420
REMARK  178  A    between atoms: _422  and  _424
REMARK  179  A    between atoms: _424  and  _425
REMARK  180  A    between atoms: _424  and  _427
REMARK  181  A    between atoms: _427  and  _428
REMARK  182  A    between atoms: _430  and  _432
REMARK  183  A    between atoms: _432  and  _433
REMARK  184  A    between atoms: _436  and  _438
REMARK  185  A    between atoms: _438  and  _439
REMARK  186  A    between atoms: _438  and  _441
REMARK  187  A    between atoms: _441  and  _442
REMARK  188  A    between atoms: _442  and  _443
REMARK  189  A    between atoms: _443  and  _444
REMARK  190  A    between atoms: _453  and  _455
REMARK  191  A    between atoms: _455  and  _456
REMARK  192  A    between atoms: _455  and  _458
REMARK  193  A    between atoms: _458  and  _459
REMARK  194  A    between atoms: _464  and  _466
REMARK  195  A    between atoms: _466  and  _467
REMARK  196  A    between atoms: _466  and  _469
REMARK  197  A    between atoms: _469  and  _470
REMARK  198  A    between atoms: _470  and  _471
REMARK  199  A    between atoms: _471  and  _472
REMARK  200  A    between atoms: _481  and  _483
REMARK  201  A    between atoms: _483  and  _484
REMARK  202  A    between atoms: _483  and  _486
REMARK  203  A    between atoms: _486  and  _487
REMARK  204  A    between atoms: _492  and  _493
REMARK  205  A    between atoms: _495  and  _497
REMARK  206  A    between atoms: _497  and  _498
REMARK  207  A    between atoms: _497  and  _500
REMARK  208  A    between atoms: _500  and  _501
REMARK  209  A    between atoms: _504  and  _506
REMARK  210  A    between atoms: _506  and  _507
REMARK  211  A    between atoms: _506  and  _509
REMARK  212  A    between atoms: _509  and  _510
REMARK  213  A    between atoms: _510  and  _511
REMARK  214  A    between atoms: _514  and  _516
REMARK  215  A    between atoms: _516  and  _517
REMARK  216  A    between atoms: _516  and  _519
REMARK  217  A    between atoms: _519  and  _520
REMARK  218  A    between atoms: _520  and  _521
REMARK  219  A    between atoms: _524  and  _526
REMARK  220  A    between atoms: _526  and  _527
REMARK  221  A    between atoms: _529  and  _531
REMARK  222  A    between atoms: _531  and  _532
REMARK  223  A    between atoms: _531  and  _534
REMARK  224  A    between atoms: _537  and  _539
REMARK  225  A    between atoms: _539  and  _540
REMARK  226  A    between atoms: _539  and  _542
REMARK  227  A    between atoms: _542  and  _543
REMARK  228  A    between atoms: _546  and  _548
REMARK  229  A    between atoms: _548  and  _549
REMARK  230  A    between atoms: _548  and  _551
REMARK  231  A    between atoms: _554  and  _556
REMARK  232  A    between atoms: _556  and  _557
REMARK  233  A    between atoms: _556  and  _559
REMARK  234  A    between atoms: _559  and  _560
REMARK  235  A    between atoms: _560  and  _561
REMARK  236  A    between atoms: _564  and  _566
REMARK  237  A    between atoms: _566  and  _567
REMARK  238  A    between atoms: _566  and  _569
REMARK  239  A    between atoms: _569  and  _570
REMARK  240  A    between atoms: _575  and  _577
REMARK  241  A    between atoms: _577  and  _578
REMARK  242  A    between atoms: _577  and  _580
REMARK  243  A    between atoms: _580  and  _581
REMARK  244  A    between atoms: _584  and  _586
REMARK  245  A    between atoms: _586  and  _587
REMARK  246  A    between atoms: _586  and  _589
REMARK                            x       y       z     vdW  Elec       q    Type
REMARK                         _______ _______ _______ _____ _____    ______ ____
ROOT
ATOM      1  CA  ARG A   5     -21.648  30.754  50.850  0.00  0.00    +0.149 C 
ENDROOT
BRANCH   1   4
ATOM      2  C   GLY A   4     -23.669  32.038  51.388  0.00  0.00    +0.243 C 
ATOM      3  O   GLY A   4     -24.034  31.238  52.244  0.00  0.00    -0.273 OA
ATOM      4  N   ARG A   5     -22.543  31.899  50.690  0.00  0.00    -0.297 N 
ATOM      5  H   ARG A   5     -22.290  32.636  50.002  0.00  0.00    +0.150 HD
BRANCH   2   6
ATOM      6  CA  GLY A   4     -24.488  33.279  51.091  0.00  0.00    +0.176 C 
BRANCH   6   9
ATOM      7  C   LEU A   3     -24.189  35.125  52.624  0.00  0.00    +0.241 C 
ATOM      8  O   LEU A   3     -25.221  34.855  53.234  0.00  0.00    -0.273 OA
ATOM      9  N   GLY A   4     -23.764  34.438  51.571  0.00  0.00    -0.295 N 
ATOM     10  H   GLY A   4     -22.896  34.737  51.082  0.00  0.00    +0.150 HD
BRANCH   7  11
ATOM     11  CA  LEU A   3     -23.308  36.296  53.036  0.00  0.00    +0.149 C 
BRANCH  11  13
ATOM     12  C   MET A   2     -23.841  38.656  53.054  0.00  0.00    +0.241 C 
ATOM     13  N   LEU A   3     -24.066  37.435  53.525  0.00  0.00    -0.297 N 
ATOM     14  H   LEU A   3     -24.794  37.292  54.253  0.00  0.00    +0.150 HD
ATOM     15  O   MET A   2     -22.994  38.901  52.183  0.00  0.00    -0.273 OA
BRANCH  12  16
ATOM     16  CA  MET A   2     -24.682  39.767  53.655  0.00  0.00    +0.149 C 
BRANCH  16  19
ATOM     17  C   ILE A   1     -23.478  40.987  55.354  0.00  0.00    +0.238 C 
ATOM     18  O   ILE A   1     -23.976  40.301  56.248  0.00  0.00    -0.274 OA
ATOM     19  N   MET A   2     -23.769  40.820  54.070  0.00  0.00    -0.297 N 
ATOM     20  H   MET A   2     -23.342  41.445  53.357  0.00  0.00    +0.150 HD
BRANCH  17  21
ATOM     21  CA  ILE A   1     -22.483  42.089  55.687  0.00  0.00    +0.145 C 
BRANCH  21  22
ATOM     22  N   ILE A   1     -22.909  42.908  56.816  0.00  0.00    -0.238 NA
ATOM     23  H   ILE A   1     -23.110  42.445  57.725  0.00  0.00    +0.142 HD
ENDBRANCH  21  22
BRANCH  21  24
ATOM     24  CB  ILE A   1     -21.130  41.421  56.019  0.00  0.00    +0.025 C 
ATOM     25  CG2 ILE A   1     -20.600  40.661  54.805  0.00  0.00    +0.002 C 
BRANCH  24  26
ATOM     26  CG1 ILE A   1     -20.139  42.491  56.494  0.00  0.00    +0.002 C 
ATOM     27  CD1 ILE A   1     -18.960  41.938  57.267  0.00  0.00    +0.000 C 
ENDBRANCH  24  26
ENDBRANCH  21  24
ENDBRANCH  17  21
ENDBRANCH  16  19
BRANCH  16  28
ATOM     28  CB  MET A   2     -25.697  40.272  52.624  0.00  0.00    +0.041 C 
BRANCH  28  29
ATOM     29  CG  MET A   2     -26.641  39.164  52.139  0.00  0.00    +0.060 C 
BRANCH  29  30
ATOM     30  SD  MET A   2     -27.990  39.731  51.075  0.00  0.00    -0.139 S 
ATOM     31  CE  MET A   2     -29.219  40.190  52.321  0.00  0.00    +0.069 C 
ENDBRANCH  29  30
ENDBRANCH  28  29
ENDBRANCH  16  28
ENDBRANCH  12  16
ENDBRANCH  11  13
BRANCH  11  32
ATOM     32  CB  LEU A   3     -22.310  35.823  54.104  0.00  0.00    +0.029 C 
BRANCH  32  33
ATOM     33  CG  LEU A   3     -21.418  36.887  54.759  0.00  0.00    +0.002 C 
ATOM     34  CD2 LEU A   3     -22.163  37.520  55.930  0.00  0.00    +0.000 C 
ATOM     35  CD1 LEU A   3     -20.126  36.242  55.257  0.00  0.00    +0.000 C 
ENDBRANCH  32  33
ENDBRANCH  11  32
ENDBRANCH   7  11
ENDBRANCH   6   9
ENDBRANCH   2   6
ENDBRANCH   1   4
BRANCH   1  36
ATOM     36  C   ARG A   5     -21.296  30.458  52.306  0.00  0.00    +0.241 C 
ATOM     37  N   TYR A   6     -20.946  31.505  53.045  0.00  0.00    -0.297 N 
ATOM     38  H   TYR A   6     -20.946  32.450  52.610  0.00  0.00    +0.150 HD
ATOM     39  O   ARG A   5     -21.326  29.304  52.738  0.00  0.00    -0.273 OA
BRANCH  37  40
ATOM     40  CA  TYR A   6     -20.562  31.373  54.447  0.00  0.00    +0.153 C 
BRANCH  40  41
ATOM     41  C   TYR A   6     -21.593  30.584  55.249  0.00  0.00    +0.241 C 
ATOM     42  O   TYR A   6     -21.234  29.702  56.028  0.00  0.00    -0.273 OA
ATOM     43  N   PHE A   7     -22.871  30.905  55.051  0.00  0.00    -0.297 N 
ATOM     44  H   PHE A   7     -23.105  31.649  54.363  0.00  0.00    +0.150 HD
BRANCH  43  45
ATOM     45  CA  PHE A   7     -23.953  30.240  55.775  0.00  0.00    +0.153 C 
BRANCH  45  46
ATOM     46  C   PHE A   7     -24.434  28.932  55.157  0.00  0.00    +0.241 C 
ATOM     47  O   PHE A   7     -24.921  28.054  55.866  0.00  0.00    -0.273 OA
ATOM     48  N   ALA A   8     -24.303  28.808  53.839  0.00  0.00    -0.298 N 
ATOM     49  H   ALA A   8     -23.879  29.587  53.296  0.00  0.00    +0.150 HD
BRANCH  48  50
ATOM     50  CA  ALA A   8     -24.740  27.606  53.138  0.00  0.00    +0.137 C 
ATOM     51  CB  ALA A   8     -24.512  27.767  51.635  0.00  0.00    +0.030 C 
BRANCH  50  52
ATOM     52  C   ALA A   8     -24.009  26.369  53.642  0.00  0.00    +0.227 C 
ATOM     53  O   ALA A   8     -24.525  25.257  53.550  0.00  0.00    -0.286 OA
ENDBRANCH  50  52
ENDBRANCH  48  50
ENDBRANCH  45  46
BRANCH  45  54
ATOM     54  CB  PHE A   7     -25.153  31.178  55.922  0.00  0.00    +0.055 C 
BRANCH  54  55
ATOM     55  CG  PHE A   7     -24.909  32.338  56.843  0.00  0.00    -0.020 A 
ATOM     56  CD2 PHE A   7     -24.749  32.132  58.209  0.00  0.00    -0.004 A 
ATOM     57  CE2 PHE A   7     -24.543  33.205  59.080  0.00  0.00    -0.000 A 
ATOM     58  CZ  PHE A   7     -24.497  34.502  58.582  0.00  0.00    -0.000 A 
ATOM     59  CE1 PHE A   7     -24.655  34.722  57.213  0.00  0.00    -0.000 A 
ATOM     60  CD1 PHE A   7     -24.860  33.639  56.351  0.00  0.00    -0.004 A 
ENDBRANCH  54  55
ENDBRANCH  45  54
ENDBRANCH  43  45
ENDBRANCH  40  41
BRANCH  40  61
ATOM     61  CB  TYR A   6     -20.383  32.761  55.073  0.00  0.00    +0.055 C 
BRANCH  61  62
ATOM     62  CG  TYR A   6     -19.999  32.739  56.537  0.00  0.00    -0.020 A 
ATOM     63  CD2 TYR A   6     -20.954  32.952  57.529  0.00  0.00    -0.001 A 
ATOM     64  CE2 TYR A   6     -20.613  32.914  58.879  0.00  0.00    +0.036 A 
ATOM     65  CZ  TYR A   6     -19.304  32.665  59.248  0.00  0.00    +0.134 A 
ATOM     66  CE1 TYR A   6     -18.330  32.455  58.282  0.00  0.00    +0.036 A 
ATOM     67  CD1 TYR A   6     -18.682  32.489  56.932  0.00  0.00    -0.001 A 
BRANCH  65  68
ATOM     68  OH  TYR A   6     -18.971  32.603  60.584  0.00  0.00    -0.506 OA
ATOM     69  HH  TYR A   6     -18.002  32.419  60.673  0.00  0.00    +0.292 HD
ENDBRANCH  65  68
ENDBRANCH  61  62
ENDBRANCH  40  61
ENDBRANCH  37  40
ENDBRANCH   1  36
BRANCH   1  70
ATOM     70  CB  ARG A   5     -20.346  30.983  50.074  0.00  0.00    +0.033 C 
BRANCH  70  71
ATOM     71  CG  ARG A   5     -19.516  29.718  49.891  0.00  0.00    +0.045 C 
BRANCH  71  72
ATOM     72  CD  ARG A   5     -18.093  30.000  49.441  0.00  0.00    +0.174 C 
BRANCH  72  73
ATOM     73  NE  ARG A   5     -17.261  30.223  50.602  0.00  0.00    -0.265 N 
ATOM     74  CZ  ARG A   5     -16.424  29.359  51.167  0.00  0.00    +0.342 C 
ATOM     75  NH2 ARG A   5     -15.824  29.735  52.277  0.00  0.00    -0.292 N 
ATOM     76 HH21 ARG A   5     -15.161  29.091  52.753  0.00  0.00    +0.255 HD
ATOM     77 HH22 ARG A   5     -16.013  30.676  52.677  0.00  0.00    +0.255 HD
ATOM     78  NH1 ARG A   5     -16.225  28.132  50.694  0.00  0.00    -0.292 N 
ATOM     79 HH11 ARG A   5     -15.559  27.492  51.172  0.00  0.00    +0.255 HD
ATOM     80 HH12 ARG A   5     -16.735  27.812  49.846  0.00  0.00    +0.255 HD
ATOM     81  HE  ARG A   5     -17.324  31.163  51.043  0.00  0.00    +0.259 HD
ENDBRANCH  72  73
ENDBRANCH  71  72
ENDBRANCH  70  71
ENDBRANCH   1  70
TORSDOF 32
REMARK  Name = ../refined-set-2016/1pvn/1pvn_pocket.pdb
REMARK  246 active torsions:
REMARK  status: ('A' for Active; 'I' for Inactive)
REMARK    1  A    between atoms: _1  and  _3
REMARK    2  A    between atoms: _3  and  _4
REMARK    3  A    between atoms: _3  and  _6
REMARK    4  A    between atoms: _9  and  _11
REMARK    5  A    between atoms: _11  and  _12
REMARK    6  A    between atoms: _11  and  _14
REMARK    7  A    between atoms: _14  and  _15
REMARK    8  A    between atoms: _17  and  _19
REMARK    9  A    between atoms: _19  and  _20
REMARK   10  A    between atoms: _23  and  _25
REMARK   11  A    between atoms: _25  and  _26
REMARK   12  A    between atoms: _25  and  _28
REMARK   13  A    between atoms: _28  and  _29
REMARK   14  A    between atoms: _32  and  _34
REMARK   15  A    between atoms: _34  and  _35
REMARK   16  A    between atoms: _34  and  _37
REMARK   17  A    between atoms: _37  and  _38
REMARK   18  A    between atoms: _38  and  _39
REMARK   19  A    between atoms: _41  and  _43
REMARK   20  A    between atoms: _43  and  _44
REMARK   21  A    between atoms: _43  and  _46
REMARK   22  A    between atoms: _46  and  _47
REMARK   23  A    between atoms: _47  and  _48
REMARK   24  A    between atoms: _53  and  _55
REMARK   25  A    between atoms: _55  and  _56
REMARK   26  A    between atoms: _55  and  _58
REMARK   27  A    between atoms: _58  and  _59
REMARK   28  A    between atoms: _61  and  _63
REMARK   29  A    between atoms: _63  and  _64
REMARK   30  A    between atoms: _63  and  _66
REMARK   31  A    between atoms: _69  and  _71
REMARK   32  A    between atoms: _71  and  _72
REMARK   33  A    between atoms: _71  and  _74
REMARK   34  A    between atoms: _74  and  _75
REMARK   35  A    between atoms: _78  and  _80
REMARK   36  A    between atoms: _80  and  _81
REMARK   37  A    between atoms: _80  and  _83
REMARK   38  A    between atoms: _83  and  _84
REMARK   39  A    between atoms: _86  and  _88
REMARK   40  A    between atoms: _88  and  _89
REMARK   41  A    between atoms: _88  and  _91
REMARK   42  A    between atoms: _91  and  _92
REMARK   43  A    between atoms: _94  and  _96
REMARK   44  A    between atoms: _96  and  _97
REMARK   45  A    between atoms: _99  and  _101
REMARK   46  A    between atoms: _101  and  _102
REMARK   47  A    between atoms: _101  and  _104
REMARK   48  A    between atoms: _104  and  _105
REMARK   49  A    between atoms: _110  and  _112
REMARK   50  A    between atoms: _112  and  _113
REMARK   51  A    between atoms: _112  and  _115
REMARK   52  A    between atoms: _115  and  _116
REMARK   53  A    between atoms: _116  and  _117
REMARK   54  A    between atoms: _117  and  _118
REMARK   55  A    between atoms: _118  and  _119
REMARK   56  A    between atoms: _123  and  _125
REMARK   57  A    between atoms: _125  and  _126
REMARK   58  A    between atoms: _125  and  _128
REMARK   59  A    between atoms: _128  and  _129
REMARK   60  A    between atoms: _132  and  _134
REMARK   61  A    between atoms: _134  and  _135
REMARK   62  A    between atoms: _137  and  _139
REMARK   63  A    between atoms: _139  and  _140
REMARK   64  A    between atoms: _139  and  _142
REMARK   65  A    between atoms: _142  and  _143
REMARK   66  A    between atoms: _146  and  _148
REMARK   67  A    between atoms: _148  and  _149
REMARK   68  A    between atoms: _151  and  _153
REMARK   69  A    between atoms: _153  and  _154
REMARK   70  A    between atoms: _156  and  _158
REMARK   71  A    between atoms: _158  and  _159
REMARK   72  A    between atoms: _161  and  _163
REMARK   73  A    between atoms: _163  and  _164
REMARK   74  A    between atoms: _163  and  _166
REMARK   75  A    between atoms: _166  and  _167
REMARK   76  A    between atoms: _169  and  _171
REMARK   77  A    between atoms: _171  and  _172
REMARK   78  A    between atoms: _171  and  _174
REMARK   79  A    between atoms: _174  and  _175
REMARK   80  A    between atoms: _178  and  _180
REMARK   81  A    between atoms: _180  and  _181
REMARK   82  A    between atoms: _180  and  _183
REMARK   83  A    between atoms: _185  and  _187
REMARK   84  A    between atoms: _187  and  _188
REMARK   85  A    between atoms: _187  and  _190
REMARK   86  A    between atoms: _190  and  _191
REMARK   87  A    between atoms: _194  and  _196
REMARK   88  A    between atoms: _196  and  _197
REMARK   89  A    between atoms: _196  and  _199
REMARK   90  A    between atoms: _199  and  _200
REMARK   91  A    between atoms: _203  and  _205
REMARK   92  A    between atoms: _205  and  _206
REMARK   93  A    between atoms: _205  and  _208
REMARK   94  A    between atoms: _208  and  _209
REMARK   95  A    between atoms: _209  and  _210
REMARK   96  A    between atoms: _210  and  _211
REMARK   97  A    between atoms: _220  and  _222
REMARK   98  A    between atoms: _222  and  _223
REMARK   99  A    between atoms: _222  and  _225
REMARK  100  A    between atoms: _225  and  _226
REMARK  101  A    between atoms: _226  and  _227
REMARK  102  A    between atoms: _232  and  _234
REMARK  103  A    between atoms: _234  and  _235
REMARK  104  A    between atoms: _234  and  _237
REMARK  105  A    between atoms: _239  and  _241
REMARK  106  A    between atoms: _241  and  _242
REMARK  107  A    between atoms: _241  and  _244
REMARK  108  A    between atoms: _244  and  _245
REMARK  109  A    between atoms: _247  and  _249
REMARK  110  A    between atoms: _249  and  _250
REMARK  111  A    between atoms: _249  and  _252
REMARK  112  A    between atoms: _252  and  _253
REMARK  113  A    between atoms: _256  and  _258
REMARK  114  A    between atoms: _258  and  _259
REMARK  115  A    between atoms: _261  and  _263
REMARK  116  A    between atoms: _263  and  _264
REMARK  117  A    between atoms: _266  and  _268
REMARK  118  A    between atoms: _268  and  _269
REMARK  119  A    between atoms: _268  and  _271
REMARK  120  A    between atoms: _271  and  _272
REMARK  121  A    between atoms: _275  and  _277
REMARK  122  A    between atoms: _277  and  _278
REMARK  123  A    between atoms: _277  and  _280
REMARK  124  A    between atoms: _283  and  _285
REMARK  125  A    between atoms: _285  and  _286
REMARK  126  A    between atoms: _285  and  _288
REMARK  127  A    between atoms: _288  and  _289
REMARK  128  A    between atoms: _292  and  _294
REMARK  129  A    between atoms: _294  and  _295
REMARK  130  A    between atoms: _294  and  _297
REMARK  131  A    between atoms: _297  and  _298
REMARK  132  A    between atoms: _298  and  _299
REMARK  133  A    between atoms: _301  and  _303
REMARK  134  A    between atoms: _303  and  _304
REMARK  135  A    between atoms: _303  and  _306
REMARK  136  A    between atoms: _306  and  _307
REMARK  137  A    between atoms: _310  and  _312
REMARK  138  A    between atoms: _312  and  _313
REMARK  139  A    between atoms: _315  and  _317
REMARK  140  A    between atoms: _317  and  _318
REMARK  141  A    between atoms: _317  and  _320
REMARK  142  A    between atoms: _320  and  _321
REMARK  143  A    between atoms: _321  and  _322
REMARK  144  A    between atoms: _322  and  _323
REMARK  145  A    between atoms: _332  and  _334
REMARK  146  A    between atoms: _334  and  _335
REMARK  147  A    between atoms: _334  and  _337
REMARK  148  A    between atoms: _337  and  _338
REMARK  149  A    between atoms: _343  and  _344
REMARK  150  A    between atoms: _346  and  _348
REMARK  151  A    between atoms: _348  and  _349
REMARK  152  A    between atoms: _348  and  _351
REMARK  153  A    between atoms: _351  and  _352
REMARK  154  A    between atoms: _358  and  _360
REMARK  155  A    between atoms: _360  and  _361
REMARK  156  A    between atoms: _364  and  _366
REMARK  157  A    between atoms: _366  and  _367
REMARK  158  A    between atoms: _366  and  _369
REMARK  159  A    between atoms: _369  and  _370
REMARK  160  A    between atoms: _375  and  _376
REMARK  161  A    between atoms: _378  and  _380
REMARK  162  A    between atoms: _380  and  _381
REMARK  163  A    between atoms: _380  and  _383
REMARK  164  A    between atoms: _383  and  _384
REMARK  165  A    between atoms: _394  and  _396
REMARK  166  A    between atoms: _396  and  _397
REMARK  167  A    between atoms: _399  and  _401
REMARK  168  A    between atoms: _401  and  _402
REMARK  169  A    between atoms: _401  and  _404
REMARK  170  A    between atoms: _404  and  _405
REMARK  171  A    between atoms: _405  and  _406
REMARK  172  A    between atoms: _409  and  _411
REMARK  173  A    between atoms: _411  and  _412
REMARK  174  A    between atoms: _414  and  _416
REMARK  175  A    between atoms: _416  and  _417
REMARK  176  A    between atoms: _416  and  _419
REMARK  177  A    between atoms: _419  and  _420
REMARK  178  A    between atoms: _422  and  _424
REMARK  179  A    between atoms: _424  and  _425
REMARK  180  A    between atoms: _424  and  _427
REMARK  181  A    between atoms: _427  and  _428
REMARK  182  A    between atoms: _430  and  _432
REMARK  183  A    between atoms: _432  and  _433
REMARK  184  A    between atoms: _436  and  _438
REMARK  185  A    between atoms: _438  and  _439
REMARK  186  A    between atoms: _438  and  _441
REMARK  187  A    between atoms: _441  and  _442
REMARK  188  A    between atoms: _442  and  _443
REMARK  189  A    between atoms: _443  and  _444
REMARK  190  A    between atoms: _453  and  _455
REMARK  191  A    between atoms: _455  and  _456
REMARK  192  A    between atoms: _455  and  _458
REMARK  193  A    between atoms: _458  and  _459
REMARK  194  A    between atoms: _464  and  _466
REMARK  195  A    between atoms: _466  and  _467
REMARK  196  A    between atoms: _466  and  _469
REMARK  197  A    between atoms: _469  and  _470
REMARK  198  A    between atoms: _470  and  _471
REMARK  199  A    between atoms: _471  and  _472
REMARK  200  A    between atoms: _481  and  _483
REMARK  201  A    between atoms: _483  and  _484
REMARK  202  A    between atoms: _483  and  _486
REMARK  203  A    between atoms: _486  and  _487
REMARK  204  A    between atoms: _492  and  _493
REMARK  205  A    between atoms: _495  and  _497
REMARK  206  A    between atoms: _497  and  _498
REMARK  207  A    between atoms: _497  and  _500
REMARK  208  A    between atoms: _500  and  _501
REMARK  209  A    between atoms: _504  and  _506
REMARK  210  A    between atoms: _506  and  _507
REMARK  211  A    between atoms: _506  and  _509
REMARK  212  A    between atoms: _509  and  _510
REMARK  213  A    between atoms: _510  and  _511
REMARK  214  A    between atoms: _514  and  _516
REMARK  215  A    between atoms: _516  and  _517
REMARK  216  A    between atoms: _516  and  _519
REMARK  217  A    between atoms: _519  and  _520
REMARK  218  A    between atoms: _520  and  _521
REMARK  219  A    between atoms: _524  and  _526
REMARK  220  A    between atoms: _526  and  _527
REMARK  221  A    between atoms: _529  and  _531
REMARK  222  A    between atoms: _531  and  _532
REMARK  223  A    between atoms: _531  and  _534
REMARK  224  A    between atoms: _537  and  _539
REMARK  225  A    between atoms: _539  and  _540
REMARK  226  A    between atoms: _539  and  _542
REMARK  227  A    between atoms: _542  and  _543
REMARK  228  A    between atoms: _546  and  _548
REMARK  229  A    between atoms: _548  and  _549
REMARK  230  A    between atoms: _548  and  _551
REMARK  231  A    between atoms: _554  and  _556
REMARK  232  A    between atoms: _556  and  _557
REMARK  233  A    between atoms: _556  and  _559
REMARK  234  A    between atoms: _559  and  _560
REMARK  235  A    between atoms: _560  and  _561
REMARK  236  A    between atoms: _564  and  _566
REMARK  237  A    between atoms: _566  and  _567
REMARK  238  A    between atoms: _566  and  _569
REMARK  239  A    between atoms: _569  and  _570
REMARK  240  A    between atoms: _575  and  _577
REMARK  241  A    between atoms: _577  and  _578
REMARK  242  A    between atoms: _577  and  _580
REMARK  243  A    between atoms: _580  and  _581
REMARK  244  A    between atoms: _584  and  _586
REMARK  245  A    between atoms: _586  and  _587
REMARK  246  A    between atoms: _586  and  _589
REMARK                            x       y       z     vdW  Elec       q    Type
REMARK                         _______ _______ _______ _____ _____    ______ ____
ROOT
ATOM      1  CA  GLY A   3     -27.181  30.886  42.727  0.00  0.00    +0.176 C 
ENDROOT
BRANCH   1   4
ATOM      2  C   TRP A   2     -27.162  28.838  44.004  0.00  0.00    +0.241 C 
ATOM      3  O   TRP A   2     -27.790  29.361  44.923  0.00  0.00    -0.273 OA
ATOM      4  N   GLY A   3     -26.818  29.492  42.900  0.00  0.00    -0.295 N 
ATOM      5  H   GLY A   3     -26.285  29.001  42.154  0.00  0.00    +0.150 HD
BRANCH   2   6
ATOM      6  CA  TRP A   2     -26.725  27.380  44.080  0.00  0.00    +0.153 C 
BRANCH   6   8
ATOM      7  C   TYR A   1     -25.454  26.214  45.779  0.00  0.00    +0.239 C 
ATOM      8  N   TRP A   2     -26.537  26.907  45.446  0.00  0.00    -0.297 N 
ATOM      9  H   TRP A   2     -27.258  27.114  46.167  0.00  0.00    +0.150 HD
ATOM     10  O   TYR A   1     -24.573  25.936  44.972  0.00  0.00    -0.274 OA
BRANCH   7  11
ATOM     11  CA  TYR A   1     -25.352  25.752  47.226  0.00  0.00    +0.149 C 
BRANCH  11  12
ATOM     12  N   TYR A   1     -25.268  24.295  47.223  0.00  0.00    -0.238 NA
ATOM     13  H   TYR A   1     -24.886  23.813  46.384  0.00  0.00    +0.142 HD
ENDBRANCH  11  12
BRANCH  11  14
ATOM     14  CB  TYR A   1     -24.113  26.361  47.897  0.00  0.00    +0.053 C 
BRANCH  14  15
ATOM     15  CG  TYR A   1     -24.116  27.875  47.927  0.00  0.00    -0.020 A 
ATOM     16  CD2 TYR A   1     -25.221  28.580  48.410  0.00  0.00    -0.001 A 
ATOM     17  CE2 TYR A   1     -25.240  29.973  48.428  0.00  0.00    +0.036 A 
ATOM     18  CZ  TYR A   1     -24.143  30.681  47.960  0.00  0.00    +0.134 A 
ATOM     19  CE1 TYR A   1     -23.026  30.010  47.480  0.00  0.00    +0.036 A 
ATOM     20  CD1 TYR A   1     -23.018  28.606  47.464  0.00  0.00    -0.001 A 
BRANCH  18  21
ATOM     21  OH  TYR A   1     -24.186  32.063  47.956  0.00  0.00    -0.506 OA
ATOM     22  HH  TYR A   1     -23.444  32.417  48.507  0.00  0.00    +0.292 HD
ENDBRANCH  18  21
ENDBRANCH  14  15
ENDBRANCH  11  14
ENDBRANCH   7  11
ENDBRANCH   6   8
BRANCH   6  23
ATOM     23  CB  TRP A   2     -27.732  26.483  43.349  0.00  0.00    +0.057 C 
BRANCH  23  24
ATOM     24  CG  TRP A   2     -29.110  26.440  43.959  0.00  0.00    -0.002 A 
ATOM     25  CD2 TRP A   2     -29.588  25.516  44.952  0.00  0.00    +0.013 A 
ATOM     26  CE3 TRP A   2     -29.005  24.445  45.647  0.00  0.00    +0.001 A 
ATOM     27  CZ3 TRP A   2     -29.784  23.740  46.570  0.00  0.00    +0.000 A 
ATOM     28  CH2 TRP A   2     -31.125  24.090  46.804  0.00  0.00    +0.001 A 
ATOM     29  CZ2 TRP A   2     -31.719  25.133  46.138  0.00  0.00    +0.017 A 
ATOM     30  CE2 TRP A   2     -30.938  25.841  45.211  0.00  0.00    +0.056 A 
ATOM     31  NE1 TRP A   2     -31.262  26.910  44.417  0.00  0.00    -0.352 N 
ATOM     32  HE1 TRP A   2     -32.190  27.379  44.384  0.00  0.00    +0.166 HD
ATOM     33  CD1 TRP A   2     -30.158  27.263  43.669  0.00  0.00    +0.068 A 
ENDBRANCH  23  24
ENDBRANCH   6  23
ENDBRANCH   2   6
ENDBRANCH   1   4
BRANCH   1  34
ATOM     34  C   GLY A   3     -28.636  31.066  42.334  0.00  0.00    +0.243 C 
ATOM     35  N   GLU A   4     -29.188  32.233  42.643  0.00  0.00    -0.297 N 
ATOM     36  H   GLU A   4     -28.618  32.952  43.133  0.00  0.00    +0.150 HD
ATOM     37  O   GLY A   3     -29.256  30.166  41.763  0.00  0.00    -0.273 OA
BRANCH  35  38
ATOM     38  CA  GLU A   4     -30.574  32.527  42.311  0.00  0.00    +0.149 C 
BRANCH  38  39
ATOM     39  C   GLU A   4     -30.707  32.684  40.800  0.00  0.00    +0.241 C 
ATOM     40  O   GLU A   4     -31.805  32.603  40.248  0.00  0.00    -0.273 OA
ATOM     41  N   GLY A   5     -29.574  32.900  40.141  0.00  0.00    -0.295 N 
ATOM     42  H   GLY A   5     -28.680  32.954  40.670  0.00  0.00    +0.150 HD
BRANCH  41  43
ATOM     43  CA  GLY A   5     -29.557  33.062  38.701  0.00  0.00    +0.176 C 
BRANCH  43  44
ATOM     44  C   GLY A   5     -29.257  31.776  37.950  0.00  0.00    +0.243 C 
ATOM     45  N   SER A   6     -29.237  30.653  38.661  0.00  0.00    -0.295 N 
ATOM     46  H   SER A   6     -29.404  30.694  39.687  0.00  0.00    +0.150 HD
ATOM     47  O   GLY A   5     -29.029  31.804  36.740  0.00  0.00    -0.273 OA
BRANCH  45  48
ATOM     48  CA  SER A   6     -28.984  29.363  38.026  0.00  0.00    +0.178 C 
BRANCH  48  49
ATOM     49  C   SER A   6     -30.326  28.788  37.582  0.00  0.00    +0.243 C 
ATOM     50  O   SER A   6     -31.379  29.188  38.085  0.00  0.00    -0.273 OA
ATOM     51  N   SER A   7     -30.289  27.855  36.640  0.00  0.00    -0.296 N 
ATOM     52  H   SER A   7     -29.372  27.558  36.249  0.00  0.00    +0.150 HD
BRANCH  51  53
ATOM     53  CA  SER A   7     -31.515  27.240  36.144  0.00  0.00    +0.166 C 
BRANCH  53  54
ATOM     54  CB  SER A   7     -32.244  26.509  37.268  0.00  0.00    +0.229 C 
ATOM     55  OG  SER A   7     -33.461  26.330  37.215  0.00  0.00    -0.286 OA
ENDBRANCH  53  54
BRANCH  53  56
ATOM     56  C   SER A   7     -31.195  26.266  35.006  0.00  0.00    +0.165 C 
BRANCH  56  57
ATOM     57  O   SER A   7     -30.312  25.246  35.445  0.00  0.00    -0.380 OA
ATOM     58  H   SER A   7     -29.468  25.655  35.761  0.00  0.00    +0.211 HD
ENDBRANCH  56  57
ENDBRANCH  53  56
ENDBRANCH  51  53
ENDBRANCH  48  49
BRANCH  48  59
ATOM     59  CB  SER A   6     -28.322  28.395  39.007  0.00  0.00    +0.166 C 
BRANCH  59  60
ATOM     60  OG  SER A   6     -29.223  28.055  40.047  0.00  0.00    -0.380 OA
ATOM     61  H   SER A   6     -29.490  28.876  40.532  0.00  0.00    +0.211 HD
ENDBRANCH  59  60
ENDBRANCH  48  59
ENDBRANCH  45  48
ENDBRANCH  43  44
ENDBRANCH  41  43
ENDBRANCH  38  39
BRANCH  38  62
ATOM     62  CB  GLU A   4     -31.020  33.806  43.024  0.00  0.00    +0.041 C 
BRANCH  62  63
ATOM     63  CG  GLU A   4     -31.170  33.646  44.538  0.00  0.00    +0.116 C 
BRANCH  63  64
ATOM     64  CD  GLU A   4     -32.327  32.728  44.913  0.00  0.00    +0.365 C 
ATOM     65  OE2 GLU A   4     -32.102  31.713  45.607  0.00  0.00    -0.246 OA
ATOM     66  OE1 GLU A   4     -33.467  33.027  44.509  0.00  0.00    -0.246 OA
ENDBRANCH  63  64
ENDBRANCH  62  63
ENDBRANCH  38  62
ENDBRANCH  35  38
ENDBRANCH   1  34
TORSDOF 26
REMARK  Name = ../refined-set-2016/1pvn/1pvn_pocket.pdb
REMARK  246 active torsions:
REMARK  status: ('A' for Active; 'I' for Inactive)
REMARK    1  A    between atoms: _1  and  _3
REMARK    2  A    between atoms: _3  and  _4
REMARK    3  A    between atoms: _3  and  _6
REMARK    4  A    between atoms: _9  and  _11
REMARK    5  A    between atoms: _11  and  _12
REMARK    6  A    between atoms: _11  and  _14
REMARK    7  A    between atoms: _14  and  _15
REMARK    8  A    between atoms: _17  and  _19
REMARK    9  A    between atoms: _19  and  _20
REMARK   10  A    between atoms: _23  and  _25
REMARK   11  A    between atoms: _25  and  _26
REMARK   12  A    between atoms: _25  and  _28
REMARK   13  A    between atoms: _28  and  _29
REMARK   14  A    between atoms: _32  and  _34
REMARK   15  A    between atoms: _34  and  _35
REMARK   16  A    between atoms: _34  and  _37
REMARK   17  A    between atoms: _37  and  _38
REMARK   18  A    between atoms: _38  and  _39
REMARK   19  A    between atoms: _41  and  _43
REMARK   20  A    between atoms: _43  and  _44
REMARK   21  A    between atoms: _43  and  _46
REMARK   22  A    between atoms: _46  and  _47
REMARK   23  A    between atoms: _47  and  _48
REMARK   24  A    between atoms: _53  and  _55
REMARK   25  A    between atoms: _55  and  _56
REMARK   26  A    between atoms: _55  and  _58
REMARK   27  A    between atoms: _58  and  _59
REMARK   28  A    between atoms: _61  and  _63
REMARK   29  A    between atoms: _63  and  _64
REMARK   30  A    between atoms: _63  and  _66
REMARK   31  A    between atoms: _69  and  _71
REMARK   32  A    between atoms: _71  and  _72
REMARK   33  A    between atoms: _71  and  _74
REMARK   34  A    between atoms: _74  and  _75
REMARK   35  A    between atoms: _78  and  _80
REMARK   36  A    between atoms: _80  and  _81
REMARK   37  A    between atoms: _80  and  _83
REMARK   38  A    between atoms: _83  and  _84
REMARK   39  A    between atoms: _86  and  _88
REMARK   40  A    between atoms: _88  and  _89
REMARK   41  A    between atoms: _88  and  _91
REMARK   42  A    between atoms: _91  and  _92
REMARK   43  A    between atoms: _94  and  _96
REMARK   44  A    between atoms: _96  and  _97
REMARK   45  A    between atoms: _99  and  _101
REMARK   46  A    between atoms: _101  and  _102
REMARK   47  A    between atoms: _101  and  _104
REMARK   48  A    between atoms: _104  and  _105
REMARK   49  A    between atoms: _110  and  _112
REMARK   50  A    between atoms: _112  and  _113
REMARK   51  A    between atoms: _112  and  _115
REMARK   52  A    between atoms: _115  and  _116
REMARK   53  A    between atoms: _116  and  _117
REMARK   54  A    between atoms: _117  and  _118
REMARK   55  A    between atoms: _118  and  _119
REMARK   56  A    between atoms: _123  and  _125
REMARK   57  A    between atoms: _125  and  _126
REMARK   58  A    between atoms: _125  and  _128
REMARK   59  A    between atoms: _128  and  _129
REMARK   60  A    between atoms: _132  and  _134
REMARK   61  A    between atoms: _134  and  _135
REMARK   62  A    between atoms: _137  and  _139
REMARK   63  A    between atoms: _139  and  _140
REMARK   64  A    between atoms: _139  and  _142
REMARK   65  A    between atoms: _142  and  _143
REMARK   66  A    between atoms: _146  and  _148
REMARK   67  A    between atoms: _148  and  _149
REMARK   68  A    between atoms: _151  and  _153
REMARK   69  A    between atoms: _153  and  _154
REMARK   70  A    between atoms: _156  and  _158
REMARK   71  A    between atoms: _158  and  _159
REMARK   72  A    between atoms: _161  and  _163
REMARK   73  A    between atoms: _163  and  _164
REMARK   74  A    between atoms: _163  and  _166
REMARK   75  A    between atoms: _166  and  _167
REMARK   76  A    between atoms: _169  and  _171
REMARK   77  A    between atoms: _171  and  _172
REMARK   78  A    between atoms: _171  and  _174
REMARK   79  A    between atoms: _174  and  _175
REMARK   80  A    between atoms: _178  and  _180
REMARK   81  A    between atoms: _180  and  _181
REMARK   82  A    between atoms: _180  and  _183
REMARK   83  A    between atoms: _185  and  _187
REMARK   84  A    between atoms: _187  and  _188
REMARK   85  A    between atoms: _187  and  _190
REMARK   86  A    between atoms: _190  and  _191
REMARK   87  A    between atoms: _194  and  _196
REMARK   88  A    between atoms: _196  and  _197
REMARK   89  A    between atoms: _196  and  _199
REMARK   90  A    between atoms: _199  and  _200
REMARK   91  A    between atoms: _203  and  _205
REMARK   92  A    between atoms: _205  and  _206
REMARK   93  A    between atoms: _205  and  _208
REMARK   94  A    between atoms: _208  and  _209
REMARK   95  A    between atoms: _209  and  _210
REMARK   96  A    between atoms: _210  and  _211
REMARK   97  A    between atoms: _220  and  _222
REMARK   98  A    between atoms: _222  and  _223
REMARK   99  A    between atoms: _222  and  _225
REMARK  100  A    between atoms: _225  and  _226
REMARK  101  A    between atoms: _226  and  _227
REMARK  102  A    between atoms: _232  and  _234
REMARK  103  A    between atoms: _234  and  _235
REMARK  104  A    between atoms: _234  and  _237
REMARK  105  A    between atoms: _239  and  _241
REMARK  106  A    between atoms: _241  and  _242
REMARK  107  A    between atoms: _241  and  _244
REMARK  108  A    between atoms: _244  and  _245
REMARK  109  A    between atoms: _247  and  _249
REMARK  110  A    between atoms: _249  and  _250
REMARK  111  A    between atoms: _249  and  _252
REMARK  112  A    between atoms: _252  and  _253
REMARK  113  A    between atoms: _256  and  _258
REMARK  114  A    between atoms: _258  and  _259
REMARK  115  A    between atoms: _261  and  _263
REMARK  116  A    between atoms: _263  and  _264
REMARK  117  A    between atoms: _266  and  _268
REMARK  118  A    between atoms: _268  and  _269
REMARK  119  A    between atoms: _268  and  _271
REMARK  120  A    between atoms: _271  and  _272
REMARK  121  A    between atoms: _275  and  _277
REMARK  122  A    between atoms: _277  and  _278
REMARK  123  A    between atoms: _277  and  _280
REMARK  124  A    between atoms: _283  and  _285
REMARK  125  A    between atoms: _285  and  _286
REMARK  126  A    between atoms: _285  and  _288
REMARK  127  A    between atoms: _288  and  _289
REMARK  128  A    between atoms: _292  and  _294
REMARK  129  A    between atoms: _294  and  _295
REMARK  130  A    between atoms: _294  and  _297
REMARK  131  A    between atoms: _297  and  _298
REMARK  132  A    between atoms: _298  and  _299
REMARK  133  A    between atoms: _301  and  _303
REMARK  134  A    between atoms: _303  and  _304
REMARK  135  A    between atoms: _303  and  _306
REMARK  136  A    between atoms: _306  and  _307
REMARK  137  A    between atoms: _310  and  _312
REMARK  138  A    between atoms: _312  and  _313
REMARK  139  A    between atoms: _315  and  _317
REMARK  140  A    between atoms: _317  and  _318
REMARK  141  A    between atoms: _317  and  _320
REMARK  142  A    between atoms: _320  and  _321
REMARK  143  A    between atoms: _321  and  _322
REMARK  144  A    between atoms: _322  and  _323
REMARK  145  A    between atoms: _332  and  _334
REMARK  146  A    between atoms: _334  and  _335
REMARK  147  A    between atoms: _334  and  _337
REMARK  148  A    between atoms: _337  and  _338
REMARK  149  A    between atoms: _343  and  _344
REMARK  150  A    between atoms: _346  and  _348
REMARK  151  A    between atoms: _348  and  _349
REMARK  152  A    between atoms: _348  and  _351
REMARK  153  A    between atoms: _351  and  _352
REMARK  154  A    between atoms: _358  and  _360
REMARK  155  A    between atoms: _360  and  _361
REMARK  156  A    between atoms: _364  and  _366
REMARK  157  A    between atoms: _366  and  _367
REMARK  158  A    between atoms: _366  and  _369
REMARK  159  A    between atoms: _369  and  _370
REMARK  160  A    between atoms: _375  and  _376
REMARK  161  A    between atoms: _378  and  _380
REMARK  162  A    between atoms: _380  and  _381
REMARK  163  A    between atoms: _380  and  _383
REMARK  164  A    between atoms: _383  and  _384
REMARK  165  A    between atoms: _394  and  _396
REMARK  166  A    between atoms: _396  and  _397
REMARK  167  A    between atoms: _399  and  _401
REMARK  168  A    between atoms: _401  and  _402
REMARK  169  A    between atoms: _401  and  _404
REMARK  170  A    between atoms: _404  and  _405
REMARK  171  A    between atoms: _405  and  _406
REMARK  172  A    between atoms: _409  and  _411
REMARK  173  A    between atoms: _411  and  _412
REMARK  174  A    between atoms: _414  and  _416
REMARK  175  A    between atoms: _416  and  _417
REMARK  176  A    between atoms: _416  and  _419
REMARK  177  A    between atoms: _419  and  _420
REMARK  178  A    between atoms: _422  and  _424
REMARK  179  A    between atoms: _424  and  _425
REMARK  180  A    between atoms: _424  and  _427
REMARK  181  A    between atoms: _427  and  _428
REMARK  182  A    between atoms: _430  and  _432
REMARK  183  A    between atoms: _432  and  _433
REMARK  184  A    between atoms: _436  and  _438
REMARK  185  A    between atoms: _438  and  _439
REMARK  186  A    between atoms: _438  and  _441
REMARK  187  A    between atoms: _441  and  _442
REMARK  188  A    between atoms: _442  and  _443
REMARK  189  A    between atoms: _443  and  _444
REMARK  190  A    between atoms: _453  and  _455
REMARK  191  A    between atoms: _455  and  _456
REMARK  192  A    between atoms: _455  and  _458
REMARK  193  A    between atoms: _458  and  _459
REMARK  194  A    between atoms: _464  and  _466
REMARK  195  A    between atoms: _466  and  _467
REMARK  196  A    between atoms: _466  and  _469
REMARK  197  A    between atoms: _469  and  _470
REMARK  198  A    between atoms: _470  and  _471
REMARK  199  A    between atoms: _471  and  _472
REMARK  200  A    between atoms: _481  and  _483
REMARK  201  A    between atoms: _483  and  _484
REMARK  202  A    between atoms: _483  and  _486
REMARK  203  A    between atoms: _486  and  _487
REMARK  204  A    between atoms: _492  and  _493
REMARK  205  A    between atoms: _495  and  _497
REMARK  206  A    between atoms: _497  and  _498
REMARK  207  A    between atoms: _497  and  _500
REMARK  208  A    between atoms: _500  and  _501
REMARK  209  A    between atoms: _504  and  _506
REMARK  210  A    between atoms: _506  and  _507
REMARK  211  A    between atoms: _506  and  _509
REMARK  212  A    between atoms: _509  and  _510
REMARK  213  A    between atoms: _510  and  _511
REMARK  214  A    between atoms: _514  and  _516
REMARK  215  A    between atoms: _516  and  _517
REMARK  216  A    between atoms: _516  and  _519
REMARK  217  A    between atoms: _519  and  _520
REMARK  218  A    between atoms: _520  and  _521
REMARK  219  A    between atoms: _524  and  _526
REMARK  220  A    between atoms: _526  and  _527
REMARK  221  A    between atoms: _529  and  _531
REMARK  222  A    between atoms: _531  and  _532
REMARK  223  A    between atoms: _531  and  _534
REMARK  224  A    between atoms: _537  and  _539
REMARK  225  A    between atoms: _539  and  _540
REMARK  226  A    between atoms: _539  and  _542
REMARK  227  A    between atoms: _542  and  _543
REMARK  228  A    between atoms: _546  and  _548
REMARK  229  A    between atoms: _548  and  _549
REMARK  230  A    between atoms: _548  and  _551
REMARK  231  A    between atoms: _554  and  _556
REMARK  232  A    between atoms: _556  and  _557
REMARK  233  A    between atoms: _556  and  _559
REMARK  234  A    between atoms: _559  and  _560
REMARK  235  A    between atoms: _560  and  _561
REMARK  236  A    between atoms: _564  and  _566
REMARK  237  A    between atoms: _566  and  _567
REMARK  238  A    between atoms: _566  and  _569
REMARK  239  A    between atoms: _569  and  _570
REMARK  240  A    between atoms: _575  and  _577
REMARK  241  A    between atoms: _577  and  _578
REMARK  242  A    between atoms: _577  and  _580
REMARK  243  A    between atoms: _580  and  _581
REMARK  244  A    between atoms: _584  and  _586
REMARK  245  A    between atoms: _586  and  _587
REMARK  246  A    between atoms: _586  and  _589
REMARK                            x       y       z     vdW  Elec       q    Type
REMARK                         _______ _______ _______ _____ _____    ______ ____
ROOT
ATOM      1  CA  ARG A   2     -35.015  30.208  38.275  0.00  0.00    +0.149 C 
ENDROOT
BRANCH   1   4
ATOM      2  C   ALA A   1     -34.483  29.137  40.386  0.00  0.00    +0.238 C 
ATOM      3  O   ALA A   1     -35.626  29.306  40.809  0.00  0.00    -0.274 OA
ATOM      4  N   ARG A   2     -34.093  29.544  39.183  0.00  0.00    -0.297 N 
ATOM      5  H   ARG A   2     -33.109  29.385  38.885  0.00  0.00    +0.150 HD
BRANCH   2   6
ATOM      6  CA  ALA A   1     -33.426  28.453  41.249  0.00  0.00    +0.145 C 
ATOM      7  CB  ALA A   1     -32.531  29.507  41.904  0.00  0.00    +0.028 C 
BRANCH   6   8
ATOM      8  N   ALA A   1     -32.616  27.515  40.482  0.00  0.00    -0.238 NA
ATOM      9  H   ALA A   1     -31.689  27.821  40.123  0.00  0.00    +0.142 HD
ENDBRANCH   6   8
ENDBRANCH   2   6
ENDBRANCH   1   4
BRANCH   1  10
ATOM     10  C   ARG A   2     -35.610  31.494  38.844  0.00  0.00    +0.241 C 
ATOM     11  N   ASN A   3     -34.815  32.238  39.609  0.00  0.00    -0.298 N 
ATOM     12  H   ASN A   3     -33.844  31.919  39.802  0.00  0.00    +0.150 HD
ATOM     13  O   ARG A   2     -36.776  31.807  38.600  0.00  0.00    -0.273 OA
BRANCH  11  14
ATOM     14  CA  ASN A   3     -35.285  33.495  40.181  0.00  0.00    +0.146 C 
BRANCH  14  15
ATOM     15  C   ASN A   3     -35.121  34.576  39.115  0.00  0.00    +0.227 C 
ATOM     16  O   ASN A   3     -34.204  35.399  39.189  0.00  0.00    -0.286 OA
ENDBRANCH  14  15
BRANCH  14  17
ATOM     17  CB  ASN A   3     -34.461  33.870  41.422  0.00  0.00    +0.112 C 
BRANCH  17  18
ATOM     18  CG  ASN A   3     -34.944  35.154  42.080  0.00  0.00    +0.222 C 
ATOM     19  ND2 ASN A   3     -34.458  35.422  43.291  0.00  0.00    -0.329 N 
ATOM     20 HD21 ASN A   3     -34.747  36.289  43.787  0.00  0.00    +0.145 HD
ATOM     21 HD22 ASN A   3     -33.790  34.764  43.741  0.00  0.00    +0.145 HD
ATOM     22  OD1 ASN A   3     -35.739  35.902  41.503  0.00  0.00    -0.275 OA
ENDBRANCH  17  18
ENDBRANCH  14  17
ENDBRANCH  11  14
ENDBRANCH   1  10
BRANCH   1  23
ATOM     23  CB  ARG A   2     -36.144  29.249  37.889  0.00  0.00    +0.033 C 
BRANCH  23  24
ATOM     24  CG  ARG A   2     -35.821  28.367  36.696  0.00  0.00    +0.045 C 
BRANCH  24  25
ATOM     25  CD  ARG A   2     -36.859  27.265  36.515  0.00  0.00    +0.174 C 
BRANCH  25  26
ATOM     26  NE  ARG A   2     -36.400  26.024  37.126  0.00  0.00    -0.265 N 
ATOM     27  CZ  ARG A   2     -37.074  25.343  38.046  0.00  0.00    +0.342 C 
ATOM     28  NH2 ARG A   2     -36.554  24.228  38.548  0.00  0.00    -0.292 N 
ATOM     29 HH21 ARG A   2     -37.076  23.689  39.269  0.00  0.00    +0.255 HD
ATOM     30 HH22 ARG A   2     -35.625  23.894  38.220  0.00  0.00    +0.255 HD
ATOM     31  NH1 ARG A   2     -38.256  25.779  38.471  0.00  0.00    -0.292 N 
ATOM     32 HH11 ARG A   2     -38.780  25.242  39.191  0.00  0.00    +0.255 HD
ATOM     33 HH12 ARG A   2     -38.657  26.657  38.083  0.00  0.00    +0.255 HD
ATOM     34  HE  ARG A   2     -35.481  25.645  36.820  0.00  0.00    +0.259 HD
ENDBRANCH  25  26
ENDBRANCH  24  25
ENDBRANCH  23  24
ENDBRANCH   1  23
TORSDOF 12
REMARK  Name = ../refined-set-2016/1pvn/1pvn_pocket.pdb
REMARK  246 active torsions:
REMARK  status: ('A' for Active; 'I' for Inactive)
REMARK    1  A    between atoms: _1  and  _3
REMARK    2  A    between atoms: _3  and  _4
REMARK    3  A    between atoms: _3  and  _6
REMARK    4  A    between atoms: _9  and  _11
REMARK    5  A    between atoms: _11  and  _12
REMARK    6  A    between atoms: _11  and  _14
REMARK    7  A    between atoms: _14  and  _15
REMARK    8  A    between atoms: _17  and  _19
REMARK    9  A    between atoms: _19  and  _20
REMARK   10  A    between atoms: _23  and  _25
REMARK   11  A    between atoms: _25  and  _26
REMARK   12  A    between atoms: _25  and  _28
REMARK   13  A    between atoms: _28  and  _29
REMARK   14  A    between atoms: _32  and  _34
REMARK   15  A    between atoms: _34  and  _35
REMARK   16  A    between atoms: _34  and  _37
REMARK   17  A    between atoms: _37  and  _38
REMARK   18  A    between atoms: _38  and  _39
REMARK   19  A    between atoms: _41  and  _43
REMARK   20  A    between atoms: _43  and  _44
REMARK   21  A    between atoms: _43  and  _46
REMARK   22  A    between atoms: _46  and  _47
REMARK   23  A    between atoms: _47  and  _48
REMARK   24  A    between atoms: _53  and  _55
REMARK   25  A    between atoms: _55  and  _56
REMARK   26  A    between atoms: _55  and  _58
REMARK   27  A    between atoms: _58  and  _59
REMARK   28  A    between atoms: _61  and  _63
REMARK   29  A    between atoms: _63  and  _64
REMARK   30  A    between atoms: _63  and  _66
REMARK   31  A    between atoms: _69  and  _71
REMARK   32  A    between atoms: _71  and  _72
REMARK   33  A    between atoms: _71  and  _74
REMARK   34  A    between atoms: _74  and  _75
REMARK   35  A    between atoms: _78  and  _80
REMARK   36  A    between atoms: _80  and  _81
REMARK   37  A    between atoms: _80  and  _83
REMARK   38  A    between atoms: _83  and  _84
REMARK   39  A    between atoms: _86  and  _88
REMARK   40  A    between atoms: _88  and  _89
REMARK   41  A    between atoms: _88  and  _91
REMARK   42  A    between atoms: _91  and  _92
REMARK   43  A    between atoms: _94  and  _96
REMARK   44  A    between atoms: _96  and  _97
REMARK   45  A    between atoms: _99  and  _101
REMARK   46  A    between atoms: _101  and  _102
REMARK   47  A    between atoms: _101  and  _104
REMARK   48  A    between atoms: _104  and  _105
REMARK   49  A    between atoms: _110  and  _112
REMARK   50  A    between atoms: _112  and  _113
REMARK   51  A    between atoms: _112  and  _115
REMARK   52  A    between atoms: _115  and  _116
REMARK   53  A    between atoms: _116  and  _117
REMARK   54  A    between atoms: _117  and  _118
REMARK   55  A    between atoms: _118  and  _119
REMARK   56  A    between atoms: _123  and  _125
REMARK   57  A    between atoms: _125  and  _126
REMARK   58  A    between atoms: _125  and  _128
REMARK   59  A    between atoms: _128  and  _129
REMARK   60  A    between atoms: _132  and  _134
REMARK   61  A    between atoms: _134  and  _135
REMARK   62  A    between atoms: _137  and  _139
REMARK   63  A    between atoms: _139  and  _140
REMARK   64  A    between atoms: _139  and  _142
REMARK   65  A    between atoms: _142  and  _143
REMARK   66  A    between atoms: _146  and  _148
REMARK   67  A    between atoms: _148  and  _149
REMARK   68  A    between atoms: _151  and  _153
REMARK   69  A    between atoms: _153  and  _154
REMARK   70  A    between atoms: _156  and  _158
REMARK   71  A    between atoms: _158  and  _159
REMARK   72  A    between atoms: _161  and  _163
REMARK   73  A    between atoms: _163  and  _164
REMARK   74  A    between atoms: _163  and  _166
REMARK   75  A    between atoms: _166  and  _167
REMARK   76  A    between atoms: _169  and  _171
REMARK   77  A    between atoms: _171  and  _172
REMARK   78  A    between atoms: _171  and  _174
REMARK   79  A    between atoms: _174  and  _175
REMARK   80  A    between atoms: _178  and  _180
REMARK   81  A    between atoms: _180  and  _181
REMARK   82  A    between atoms: _180  and  _183
REMARK   83  A    between atoms: _185  and  _187
REMARK   84  A    between atoms: _187  and  _188
REMARK   85  A    between atoms: _187  and  _190
REMARK   86  A    between atoms: _190  and  _191
REMARK   87  A    between atoms: _194  and  _196
REMARK   88  A    between atoms: _196  and  _197
REMARK   89  A    between atoms: _196  and  _199
REMARK   90  A    between atoms: _199  and  _200
REMARK   91  A    between atoms: _203  and  _205
REMARK   92  A    between atoms: _205  and  _206
REMARK   93  A    between atoms: _205  and  _208
REMARK   94  A    between atoms: _208  and  _209
REMARK   95  A    between atoms: _209  and  _210
REMARK   96  A    between atoms: _210  and  _211
REMARK   97  A    between atoms: _220  and  _222
REMARK   98  A    between atoms: _222  and  _223
REMARK   99  A    between atoms: _222  and  _225
REMARK  100  A    between atoms: _225  and  _226
REMARK  101  A    between atoms: _226  and  _227
REMARK  102  A    between atoms: _232  and  _234
REMARK  103  A    between atoms: _234  and  _235
REMARK  104  A    between atoms: _234  and  _237
REMARK  105  A    between atoms: _239  and  _241
REMARK  106  A    between atoms: _241  and  _242
REMARK  107  A    between atoms: _241  and  _244
REMARK  108  A    between atoms: _244  and  _245
REMARK  109  A    between atoms: _247  and  _249
REMARK  110  A    between atoms: _249  and  _250
REMARK  111  A    between atoms: _249  and  _252
REMARK  112  A    between atoms: _252  and  _253
REMARK  113  A    between atoms: _256  and  _258
REMARK  114  A    between atoms: _258  and  _259
REMARK  115  A    between atoms: _261  and  _263
REMARK  116  A    between atoms: _263  and  _264
REMARK  117  A    between atoms: _266  and  _268
REMARK  118  A    between atoms: _268  and  _269
REMARK  119  A    between atoms: _268  and  _271
REMARK  120  A    between atoms: _271  and  _272
REMARK  121  A    between atoms: _275  and  _277
REMARK  122  A    between atoms: _277  and  _278
REMARK  123  A    between atoms: _277  and  _280
REMARK  124  A    between atoms: _283  and  _285
REMARK  125  A    between atoms: _285  and  _286
REMARK  126  A    between atoms: _285  and  _288
REMARK  127  A    between atoms: _288  and  _289
REMARK  128  A    between atoms: _292  and  _294
REMARK  129  A    between atoms: _294  and  _295
REMARK  130  A    between atoms: _294  and  _297
REMARK  131  A    between atoms: _297  and  _298
REMARK  132  A    between atoms: _298  and  _299
REMARK  133  A    between atoms: _301  and  _303
REMARK  134  A    between atoms: _303  and  _304
REMARK  135  A    between atoms: _303  and  _306
REMARK  136  A    between atoms: _306  and  _307
REMARK  137  A    between atoms: _310  and  _312
REMARK  138  A    between atoms: _312  and  _313
REMARK  139  A    between atoms: _315  and  _317
REMARK  140  A    between atoms: _317  and  _318
REMARK  141  A    between atoms: _317  and  _320
REMARK  142  A    between atoms: _320  and  _321
REMARK  143  A    between atoms: _321  and  _322
REMARK  144  A    between atoms: _322  and  _323
REMARK  145  A    between atoms: _332  and  _334
REMARK  146  A    between atoms: _334  and  _335
REMARK  147  A    between atoms: _334  and  _337
REMARK  148  A    between atoms: _337  and  _338
REMARK  149  A    between atoms: _343  and  _344
REMARK  150  A    between atoms: _346  and  _348
REMARK  151  A    between atoms: _348  and  _349
REMARK  152  A    between atoms: _348  and  _351
REMARK  153  A    between atoms: _351  and  _352
REMARK  154  A    between atoms: _358  and  _360
REMARK  155  A    between atoms: _360  and  _361
REMARK  156  A    between atoms: _364  and  _366
REMARK  157  A    between atoms: _366  and  _367
REMARK  158  A    between atoms: _366  and  _369
REMARK  159  A    between atoms: _369  and  _370
REMARK  160  A    between atoms: _375  and  _376
REMARK  161  A    between atoms: _378  and  _380
REMARK  162  A    between atoms: _380  and  _381
REMARK  163  A    between atoms: _380  and  _383
REMARK  164  A    between atoms: _383  and  _384
REMARK  165  A    between atoms: _394  and  _396
REMARK  166  A    between atoms: _396  and  _397
REMARK  167  A    between atoms: _399  and  _401
REMARK  168  A    between atoms: _401  and  _402
REMARK  169  A    between atoms: _401  and  _404
REMARK  170  A    between atoms: _404  and  _405
REMARK  171  A    between atoms: _405  and  _406
REMARK  172  A    between atoms: _409  and  _411
REMARK  173  A    between atoms: _411  and  _412
REMARK  174  A    between atoms: _414  and  _416
REMARK  175  A    between atoms: _416  and  _417
REMARK  176  A    between atoms: _416  and  _419
REMARK  177  A    between atoms: _419  and  _420
REMARK  178  A    between atoms: _422  and  _424
REMARK  179  A    between atoms: _424  and  _425
REMARK  180  A    between atoms: _424  and  _427
REMARK  181  A    between atoms: _427  and  _428
REMARK  182  A    between atoms: _430  and  _432
REMARK  183  A    between atoms: _432  and  _433
REMARK  184  A    between atoms: _436  and  _438
REMARK  185  A    between atoms: _438  and  _439
REMARK  186  A    between atoms: _438  and  _441
REMARK  187  A    between atoms: _441  and  _442
REMARK  188  A    between atoms: _442  and  _443
REMARK  189  A    between atoms: _443  and  _444
REMARK  190  A    between atoms: _453  and  _455
REMARK  191  A    between atoms: _455  and  _456
REMARK  192  A    between atoms: _455  and  _458
REMARK  193  A    between atoms: _458  and  _459
REMARK  194  A    between atoms: _464  and  _466
REMARK  195  A    between atoms: _466  and  _467
REMARK  196  A    between atoms: _466  and  _469
REMARK  197  A    between atoms: _469  and  _470
REMARK  198  A    between atoms: _470  and  _471
REMARK  199  A    between atoms: _471  and  _472
REMARK  200  A    between atoms: _481  and  _483
REMARK  201  A    between atoms: _483  and  _484
REMARK  202  A    between atoms: _483  and  _486
REMARK  203  A    between atoms: _486  and  _487
REMARK  204  A    between atoms: _492  and  _493
REMARK  205  A    between atoms: _495  and  _497
REMARK  206  A    between atoms: _497  and  _498
REMARK  207  A    between atoms: _497  and  _500
REMARK  208  A    between atoms: _500  and  _501
REMARK  209  A    between atoms: _504  and  _506
REMARK  210  A    between atoms: _506  and  _507
REMARK  211  A    between atoms: _506  and  _509
REMARK  212  A    between atoms: _509  and  _510
REMARK  213  A    between atoms: _510  and  _511
REMARK  214  A    between atoms: _514  and  _516
REMARK  215  A    between atoms: _516  and  _517
REMARK  216  A    between atoms: _516  and  _519
REMARK  217  A    between atoms: _519  and  _520
REMARK  218  A    between atoms: _520  and  _521
REMARK  219  A    between atoms: _524  and  _526
REMARK  220  A    between atoms: _526  and  _527
REMARK  221  A    between atoms: _529  and  _531
REMARK  222  A    between atoms: _531  and  _532
REMARK  223  A    between atoms: _531  and  _534
REMARK  224  A    between atoms: _537  and  _539
REMARK  225  A    between atoms: _539  and  _540
REMARK  226  A    between atoms: _539  and  _542
REMARK  227  A    between atoms: _542  and  _543
REMARK  228  A    between atoms: _546  and  _548
REMARK  229  A    between atoms: _548  and  _549
REMARK  230  A    between atoms: _548  and  _551
REMARK  231  A    between atoms: _554  and  _556
REMARK  232  A    between atoms: _556  and  _557
REMARK  233  A    between atoms: _556  and  _559
REMARK  234  A    between atoms: _559  and  _560
REMARK  235  A    between atoms: _560  and  _561
REMARK  236  A    between atoms: _564  and  _566
REMARK  237  A    between atoms: _566  and  _567
REMARK  238  A    between atoms: _566  and  _569
REMARK  239  A    between atoms: _569  and  _570
REMARK  240  A    between atoms: _575  and  _577
REMARK  241  A    between atoms: _577  and  _578
REMARK  242  A    between atoms: _577  and  _580
REMARK  243  A    between atoms: _580  and  _581
REMARK  244  A    between atoms: _584  and  _586
REMARK  245  A    between atoms: _586  and  _587
REMARK  246  A    between atoms: _586  and  _589
REMARK                            x       y       z     vdW  Elec       q    Type
REMARK                         _______ _______ _______ _____ _____    ______ ____
ROOT
ATOM      1  C   ARG A   1     -33.080  39.799  39.254  0.00  0.00    +0.238 C 
ATOM      2  O   ARG A   1     -32.291  40.725  39.465  0.00  0.00    -0.274 OA
ATOM      3  N   TYR A   2     -33.312  39.321  38.035  0.00  0.00    -0.298 N 
ATOM      4  H   TYR A   2     -34.000  38.551  37.911  0.00  0.00    +0.150 HD
ENDROOT
BRANCH   1   5
ATOM      5  CA  ARG A   1     -33.853  39.150  40.410  0.00  0.00    +0.145 C 
BRANCH   5   6
ATOM      6  N   ARG A   1     -35.104  38.532  39.971  0.00  0.00    -0.238 NA
ATOM      7  H   ARG A   1     -35.220  37.504  40.073  0.00  0.00    +0.142 HD
ENDBRANCH   5   6
BRANCH   5   8
ATOM      8  CB  ARG A   1     -32.981  38.095  41.105  0.00  0.00    +0.030 C 
BRANCH   8   9
ATOM      9  CG  ARG A   1     -31.617  38.592  41.578  0.00  0.00    +0.045 C 
BRANCH   9  10
ATOM     10  CD  ARG A   1     -30.780  37.453  42.151  0.00  0.00    +0.174 C 
BRANCH  10  11
ATOM     11  NE  ARG A   1     -29.373  37.831  42.266  0.00  0.00    -0.265 N 
ATOM     12  CZ  ARG A   1     -28.912  38.739  43.116  0.00  0.00    +0.342 C 
ATOM     13  NH2 ARG A   1     -29.746  39.359  43.942  0.00  0.00    -0.292 N 
ATOM     14 HH21 ARG A   1     -29.384  40.071  44.608  0.00  0.00    +0.255 HD
ATOM     15 HH22 ARG A   1     -30.761  39.133  43.923  0.00  0.00    +0.255 HD
ATOM     16  NH1 ARG A   1     -27.624  39.050  43.123  0.00  0.00    -0.292 N 
ATOM     17 HH11 ARG A   1     -27.265  39.762  43.790  0.00  0.00    +0.255 HD
ATOM     18 HH12 ARG A   1     -26.972  38.582  42.461  0.00  0.00    +0.255 HD
ATOM     19  HE  ARG A   1     -28.689  37.358  41.641  0.00  0.00    +0.259 HD
ENDBRANCH  10  11
ENDBRANCH   9  10
ENDBRANCH   8   9
ENDBRANCH   5   8
ENDBRANCH   1   5
BRANCH   3  20
ATOM     20  CA  TYR A   2     -32.619  39.857  36.866  0.00  0.00    +0.141 C 
BRANCH  20  21
ATOM     21  C   TYR A   2     -33.583  40.507  35.885  0.00  0.00    +0.227 C 
ATOM     22  O   TYR A   2     -33.219  40.808  34.749  0.00  0.00    -0.286 OA
ENDBRANCH  20  21
BRANCH  20  23
ATOM     23  CB  TYR A   2     -31.846  38.738  36.160  0.00  0.00    +0.054 C 
BRANCH  23  24
ATOM     24  CG  TYR A   2     -30.938  37.986  37.095  0.00  0.00    -0.020 A 
ATOM     25  CD2 TYR A   2     -31.429  36.951  37.889  0.00  0.00    -0.001 A 
ATOM     26  CE2 TYR A   2     -30.624  36.330  38.833  0.00  0.00    +0.036 A 
ATOM     27  CZ  TYR A   2     -29.311  36.747  38.987  0.00  0.00    +0.134 A 
ATOM     28  CE1 TYR A   2     -28.797  37.761  38.203  0.00  0.00    +0.036 A 
ATOM     29  CD1 TYR A   2     -29.610  38.374  37.262  0.00  0.00    -0.001 A 
BRANCH  27  30
ATOM     30  OH  TYR A   2     -28.528  36.188  39.957  0.00  0.00    -0.506 OA
ATOM     31  HH  TYR A   2     -29.039  35.482  40.426  0.00  0.00    +0.292 HD
ENDBRANCH  27  30
ENDBRANCH  23  24
ENDBRANCH  20  23
ENDBRANCH   3  20
TORSDOF 11
REMARK  Name = ../refined-set-2016/1pvn/1pvn_pocket.pdb
REMARK  246 active torsions:
REMARK  status: ('A' for Active; 'I' for Inactive)
REMARK    1  A    between atoms: _1  and  _3
REMARK    2  A    between atoms: _3  and  _4
REMARK    3  A    between atoms: _3  and  _6
REMARK    4  A    between atoms: _9  and  _11
REMARK    5  A    between atoms: _11  and  _12
REMARK    6  A    between atoms: _11  and  _14
REMARK    7  A    between atoms: _14  and  _15
REMARK    8  A    between atoms: _17  and  _19
REMARK    9  A    between atoms: _19  and  _20
REMARK   10  A    between atoms: _23  and  _25
REMARK   11  A    between atoms: _25  and  _26
REMARK   12  A    between atoms: _25  and  _28
REMARK   13  A    between atoms: _28  and  _29
REMARK   14  A    between atoms: _32  and  _34
REMARK   15  A    between atoms: _34  and  _35
REMARK   16  A    between atoms: _34  and  _37
REMARK   17  A    between atoms: _37  and  _38
REMARK   18  A    between atoms: _38  and  _39
REMARK   19  A    between atoms: _41  and  _43
REMARK   20  A    between atoms: _43  and  _44
REMARK   21  A    between atoms: _43  and  _46
REMARK   22  A    between atoms: _46  and  _47
REMARK   23  A    between atoms: _47  and  _48
REMARK   24  A    between atoms: _53  and  _55
REMARK   25  A    between atoms: _55  and  _56
REMARK   26  A    between atoms: _55  and  _58
REMARK   27  A    between atoms: _58  and  _59
REMARK   28  A    between atoms: _61  and  _63
REMARK   29  A    between atoms: _63  and  _64
REMARK   30  A    between atoms: _63  and  _66
REMARK   31  A    between atoms: _69  and  _71
REMARK   32  A    between atoms: _71  and  _72
REMARK   33  A    between atoms: _71  and  _74
REMARK   34  A    between atoms: _74  and  _75
REMARK   35  A    between atoms: _78  and  _80
REMARK   36  A    between atoms: _80  and  _81
REMARK   37  A    between atoms: _80  and  _83
REMARK   38  A    between atoms: _83  and  _84
REMARK   39  A    between atoms: _86  and  _88
REMARK   40  A    between atoms: _88  and  _89
REMARK   41  A    between atoms: _88  and  _91
REMARK   42  A    between atoms: _91  and  _92
REMARK   43  A    between atoms: _94  and  _96
REMARK   44  A    between atoms: _96  and  _97
REMARK   45  A    between atoms: _99  and  _101
REMARK   46  A    between atoms: _101  and  _102
REMARK   47  A    between atoms: _101  and  _104
REMARK   48  A    between atoms: _104  and  _105
REMARK   49  A    between atoms: _110  and  _112
REMARK   50  A    between atoms: _112  and  _113
REMARK   51  A    between atoms: _112  and  _115
REMARK   52  A    between atoms: _115  and  _116
REMARK   53  A    between atoms: _116  and  _117
REMARK   54  A    between atoms: _117  and  _118
REMARK   55  A    between atoms: _118  and  _119
REMARK   56  A    between atoms: _123  and  _125
REMARK   57  A    between atoms: _125  and  _126
REMARK   58  A    between atoms: _125  and  _128
REMARK   59  A    between atoms: _128  and  _129
REMARK   60  A    between atoms: _132  and  _134
REMARK   61  A    between atoms: _134  and  _135
REMARK   62  A    between atoms: _137  and  _139
REMARK   63  A    between atoms: _139  and  _140
REMARK   64  A    between atoms: _139  and  _142
REMARK   65  A    between atoms: _142  and  _143
REMARK   66  A    between atoms: _146  and  _148
REMARK   67  A    between atoms: _148  and  _149
REMARK   68  A    between atoms: _151  and  _153
REMARK   69  A    between atoms: _153  and  _154
REMARK   70  A    between atoms: _156  and  _158
REMARK   71  A    between atoms: _158  and  _159
REMARK   72  A    between atoms: _161  and  _163
REMARK   73  A    between atoms: _163  and  _164
REMARK   74  A    between atoms: _163  and  _166
REMARK   75  A    between atoms: _166  and  _167
REMARK   76  A    between atoms: _169  and  _171
REMARK   77  A    between atoms: _171  and  _172
REMARK   78  A    between atoms: _171  and  _174
REMARK   79  A    between atoms: _174  and  _175
REMARK   80  A    between atoms: _178  and  _180
REMARK   81  A    between atoms: _180  and  _181
REMARK   82  A    between atoms: _180  and  _183
REMARK   83  A    between atoms: _185  and  _187
REMARK   84  A    between atoms: _187  and  _188
REMARK   85  A    between atoms: _187  and  _190
REMARK   86  A    between atoms: _190  and  _191
REMARK   87  A    between atoms: _194  and  _196
REMARK   88  A    between atoms: _196  and  _197
REMARK   89  A    between atoms: _196  and  _199
REMARK   90  A    between atoms: _199  and  _200
REMARK   91  A    between atoms: _203  and  _205
REMARK   92  A    between atoms: _205  and  _206
REMARK   93  A    between atoms: _205  and  _208
REMARK   94  A    between atoms: _208  and  _209
REMARK   95  A    between atoms: _209  and  _210
REMARK   96  A    between atoms: _210  and  _211
REMARK   97  A    between atoms: _220  and  _222
REMARK   98  A    between atoms: _222  and  _223
REMARK   99  A    between atoms: _222  and  _225
REMARK  100  A    between atoms: _225  and  _226
REMARK  101  A    between atoms: _226  and  _227
REMARK  102  A    between atoms: _232  and  _234
REMARK  103  A    between atoms: _234  and  _235
REMARK  104  A    between atoms: _234  and  _237
REMARK  105  A    between atoms: _239  and  _241
REMARK  106  A    between atoms: _241  and  _242
REMARK  107  A    between atoms: _241  and  _244
REMARK  108  A    between atoms: _244  and  _245
REMARK  109  A    between atoms: _247  and  _249
REMARK  110  A    between atoms: _249  and  _250
REMARK  111  A    between atoms: _249  and  _252
REMARK  112  A    between atoms: _252  and  _253
REMARK  113  A    between atoms: _256  and  _258
REMARK  114  A    between atoms: _258  and  _259
REMARK  115  A    between atoms: _261  and  _263
REMARK  116  A    between atoms: _263  and  _264
REMARK  117  A    between atoms: _266  and  _268
REMARK  118  A    between atoms: _268  and  _269
REMARK  119  A    between atoms: _268  and  _271
REMARK  120  A    between atoms: _271  and  _272
REMARK  121  A    between atoms: _275  and  _277
REMARK  122  A    between atoms: _277  and  _278
REMARK  123  A    between atoms: _277  and  _280
REMARK  124  A    between atoms: _283  and  _285
REMARK  125  A    between atoms: _285  and  _286
REMARK  126  A    between atoms: _285  and  _288
REMARK  127  A    between atoms: _288  and  _289
REMARK  128  A    between atoms: _292  and  _294
REMARK  129  A    between atoms: _294  and  _295
REMARK  130  A    between atoms: _294  and  _297
REMARK  131  A    between atoms: _297  and  _298
REMARK  132  A    between atoms: _298  and  _299
REMARK  133  A    between atoms: _301  and  _303
REMARK  134  A    between atoms: _303  and  _304
REMARK  135  A    between atoms: _303  and  _306
REMARK  136  A    between atoms: _306  and  _307
REMARK  137  A    between atoms: _310  and  _312
REMARK  138  A    between atoms: _312  and  _313
REMARK  139  A    between atoms: _315  and  _317
REMARK  140  A    between atoms: _317  and  _318
REMARK  141  A    between atoms: _317  and  _320
REMARK  142  A    between atoms: _320  and  _321
REMARK  143  A    between atoms: _321  and  _322
REMARK  144  A    between atoms: _322  and  _323
REMARK  145  A    between atoms: _332  and  _334
REMARK  146  A    between atoms: _334  and  _335
REMARK  147  A    between atoms: _334  and  _337
REMARK  148  A    between atoms: _337  and  _338
REMARK  149  A    between atoms: _343  and  _344
REMARK  150  A    between atoms: _346  and  _348
REMARK  151  A    between atoms: _348  and  _349
REMARK  152  A    between atoms: _348  and  _351
REMARK  153  A    between atoms: _351  and  _352
REMARK  154  A    between atoms: _358  and  _360
REMARK  155  A    between atoms: _360  and  _361
REMARK  156  A    between atoms: _364  and  _366
REMARK  157  A    between atoms: _366  and  _367
REMARK  158  A    between atoms: _366  and  _369
REMARK  159  A    between atoms: _369  and  _370
REMARK  160  A    between atoms: _375  and  _376
REMARK  161  A    between atoms: _378  and  _380
REMARK  162  A    between atoms: _380  and  _381
REMARK  163  A    between atoms: _380  and  _383
REMARK  164  A    between atoms: _383  and  _384
REMARK  165  A    between atoms: _394  and  _396
REMARK  166  A    between atoms: _396  and  _397
REMARK  167  A    between atoms: _399  and  _401
REMARK  168  A    between atoms: _401  and  _402
REMARK  169  A    between atoms: _401  and  _404
REMARK  170  A    between atoms: _404  and  _405
REMARK  171  A    between atoms: _405  and  _406
REMARK  172  A    between atoms: _409  and  _411
REMARK  173  A    between atoms: _411  and  _412
REMARK  174  A    between atoms: _414  and  _416
REMARK  175  A    between atoms: _416  and  _417
REMARK  176  A    between atoms: _416  and  _419
REMARK  177  A    between atoms: _419  and  _420
REMARK  178  A    between atoms: _422  and  _424
REMARK  179  A    between atoms: _424  and  _425
REMARK  180  A    between atoms: _424  and  _427
REMARK  181  A    between atoms: _427  and  _428
REMARK  182  A    between atoms: _430  and  _432
REMARK  183  A    between atoms: _432  and  _433
REMARK  184  A    between atoms: _436  and  _438
REMARK  185  A    between atoms: _438  and  _439
REMARK  186  A    between atoms: _438  and  _441
REMARK  187  A    between atoms: _441  and  _442
REMARK  188  A    between atoms: _442  and  _443
REMARK  189  A    between atoms: _443  and  _444
REMARK  190  A    between atoms: _453  and  _455
REMARK  191  A    between atoms: _455  and  _456
REMARK  192  A    between atoms: _455  and  _458
REMARK  193  A    between atoms: _458  and  _459
REMARK  194  A    between atoms: _464  and  _466
REMARK  195  A    between atoms: _466  and  _467
REMARK  196  A    between atoms: _466  and  _469
REMARK  197  A    between atoms: _469  and  _470
REMARK  198  A    between atoms: _470  and  _471
REMARK  199  A    between atoms: _471  and  _472
REMARK  200  A    between atoms: _481  and  _483
REMARK  201  A    between atoms: _483  and  _484
REMARK  202  A    between atoms: _483  and  _486
REMARK  203  A    between atoms: _486  and  _487
REMARK  204  A    between atoms: _492  and  _493
REMARK  205  A    between atoms: _495  and  _497
REMARK  206  A    between atoms: _497  and  _498
REMARK  207  A    between atoms: _497  and  _500
REMARK  208  A    between atoms: _500  and  _501
REMARK  209  A    between atoms: _504  and  _506
REMARK  210  A    between atoms: _506  and  _507
REMARK  211  A    between atoms: _506  and  _509
REMARK  212  A    between atoms: _509  and  _510
REMARK  213  A    between atoms: _510  and  _511
REMARK  214  A    between atoms: _514  and  _516
REMARK  215  A    between atoms: _516  and  _517
REMARK  216  A    between atoms: _516  and  _519
REMARK  217  A    between atoms: _519  and  _520
REMARK  218  A    between atoms: _520  and  _521
REMARK  219  A    between atoms: _524  and  _526
REMARK  220  A    between atoms: _526  and  _527
REMARK  221  A    between atoms: _529  and  _531
REMARK  222  A    between atoms: _531  and  _532
REMARK  223  A    between atoms: _531  and  _534
REMARK  224  A    between atoms: _537  and  _539
REMARK  225  A    between atoms: _539  and  _540
REMARK  226  A    between atoms: _539  and  _542
REMARK  227  A    between atoms: _542  and  _543
REMARK  228  A    between atoms: _546  and  _548
REMARK  229  A    between atoms: _548  and  _549
REMARK  230  A    between atoms: _548  and  _551
REMARK  231  A    between atoms: _554  and  _556
REMARK  232  A    between atoms: _556  and  _557
REMARK  233  A    between atoms: _556  and  _559
REMARK  234  A    between atoms: _559  and  _560
REMARK  235  A    between atoms: _560  and  _561
REMARK  236  A    between atoms: _564  and  _566
REMARK  237  A    between atoms: _566  and  _567
REMARK  238  A    between atoms: _566  and  _569
REMARK  239  A    between atoms: _569  and  _570
REMARK  240  A    between atoms: _575  and  _577
REMARK  241  A    between atoms: _577  and  _578
REMARK  242  A    between atoms: _577  and  _580
REMARK  243  A    between atoms: _580  and  _581
REMARK  244  A    between atoms: _584  and  _586
REMARK  245  A    between atoms: _586  and  _587
REMARK  246  A    between atoms: _586  and  _589
REMARK                            x       y       z     vdW  Elec       q    Type
REMARK                         _______ _______ _______ _____ _____    ______ ____
ROOT
ATOM      1  CA  LEU A   1     -34.550  33.614  32.906  0.00  0.00    +0.133 C 
ENDROOT
BRANCH   1   2
ATOM      2  N   LEU A   1     -35.979  33.329  32.904  0.00  0.00    -0.239 NA
ATOM      3  H   LEU A   1     -36.305  32.379  33.175  0.00  0.00    +0.142 HD
ENDBRANCH   1   2
BRANCH   1   4
ATOM      4  C   LEU A   1     -34.030  33.562  31.467  0.00  0.00    +0.224 C 
ATOM      5  O   LEU A   1     -34.044  32.507  30.838  0.00  0.00    -0.287 OA
ENDBRANCH   1   4
BRANCH   1   6
ATOM      6  CB  LEU A   1     -33.832  32.575  33.774  0.00  0.00    +0.025 C 
BRANCH   6   7
ATOM      7  CG  LEU A   1     -32.596  32.989  34.577  0.00  0.00    +0.002 C 
ATOM      8  CD2 LEU A   1     -32.934  34.155  35.492  0.00  0.00    +0.000 C 
ATOM      9  CD1 LEU A   1     -32.109  31.802  35.394  0.00  0.00    +0.000 C 
ENDBRANCH   6   7
ENDBRANCH   1   6
TORSDOF 4
REMARK  Name = ../refined-set-2016/1pvn/1pvn_pocket.pdb
REMARK  246 active torsions:
REMARK  status: ('A' for Active; 'I' for Inactive)
REMARK    1  A    between atoms: _1  and  _3
REMARK    2  A    between atoms: _3  and  _4
REMARK    3  A    between atoms: _3  and  _6
REMARK    4  A    between atoms: _9  and  _11
REMARK    5  A    between atoms: _11  and  _12
REMARK    6  A    between atoms: _11  and  _14
REMARK    7  A    between atoms: _14  and  _15
REMARK    8  A    between atoms: _17  and  _19
REMARK    9  A    between atoms: _19  and  _20
REMARK   10  A    between atoms: _23  and  _25
REMARK   11  A    between atoms: _25  and  _26
REMARK   12  A    between atoms: _25  and  _28
REMARK   13  A    between atoms: _28  and  _29
REMARK   14  A    between atoms: _32  and  _34
REMARK   15  A    between atoms: _34  and  _35
REMARK   16  A    between atoms: _34  and  _37
REMARK   17  A    between atoms: _37  and  _38
REMARK   18  A    between atoms: _38  and  _39
REMARK   19  A    between atoms: _41  and  _43
REMARK   20  A    between atoms: _43  and  _44
REMARK   21  A    between atoms: _43  and  _46
REMARK   22  A    between atoms: _46  and  _47
REMARK   23  A    between atoms: _47  and  _48
REMARK   24  A    between atoms: _53  and  _55
REMARK   25  A    between atoms: _55  and  _56
REMARK   26  A    between atoms: _55  and  _58
REMARK   27  A    between atoms: _58  and  _59
REMARK   28  A    between atoms: _61  and  _63
REMARK   29  A    between atoms: _63  and  _64
REMARK   30  A    between atoms: _63  and  _66
REMARK   31  A    between atoms: _69  and  _71
REMARK   32  A    between atoms: _71  and  _72
REMARK   33  A    between atoms: _71  and  _74
REMARK   34  A    between atoms: _74  and  _75
REMARK   35  A    between atoms: _78  and  _80
REMARK   36  A    between atoms: _80  and  _81
REMARK   37  A    between atoms: _80  and  _83
REMARK   38  A    between atoms: _83  and  _84
REMARK   39  A    between atoms: _86  and  _88
REMARK   40  A    between atoms: _88  and  _89
REMARK   41  A    between atoms: _88  and  _91
REMARK   42  A    between atoms: _91  and  _92
REMARK   43  A    between atoms: _94  and  _96
REMARK   44  A    between atoms: _96  and  _97
REMARK   45  A    between atoms: _99  and  _101
REMARK   46  A    between atoms: _101  and  _102
REMARK   47  A    between atoms: _101  and  _104
REMARK   48  A    between atoms: _104  and  _105
REMARK   49  A    between atoms: _110  and  _112
REMARK   50  A    between atoms: _112  and  _113
REMARK   51  A    between atoms: _112  and  _115
REMARK   52  A    between atoms: _115  and  _116
REMARK   53  A    between atoms: _116  and  _117
REMARK   54  A    between atoms: _117  and  _118
REMARK   55  A    between atoms: _118  and  _119
REMARK   56  A    between atoms: _123  and  _125
REMARK   57  A    between atoms: _125  and  _126
REMARK   58  A    between atoms: _125  and  _128
REMARK   59  A    between atoms: _128  and  _129
REMARK   60  A    between atoms: _132  and  _134
REMARK   61  A    between atoms: _134  and  _135
REMARK   62  A    between atoms: _137  and  _139
REMARK   63  A    between atoms: _139  and  _140
REMARK   64  A    between atoms: _139  and  _142
REMARK   65  A    between atoms: _142  and  _143
REMARK   66  A    between atoms: _146  and  _148
REMARK   67  A    between atoms: _148  and  _149
REMARK   68  A    between atoms: _151  and  _153
REMARK   69  A    between atoms: _153  and  _154
REMARK   70  A    between atoms: _156  and  _158
REMARK   71  A    between atoms: _158  and  _159
REMARK   72  A    between atoms: _161  and  _163
REMARK   73  A    between atoms: _163  and  _164
REMARK   74  A    between atoms: _163  and  _166
REMARK   75  A    between atoms: _166  and  _167
REMARK   76  A    between atoms: _169  and  _171
REMARK   77  A    between atoms: _171  and  _172
REMARK   78  A    between atoms: _171  and  _174
REMARK   79  A    between atoms: _174  and  _175
REMARK   80  A    between atoms: _178  and  _180
REMARK   81  A    between atoms: _180  and  _181
REMARK   82  A    between atoms: _180  and  _183
REMARK   83  A    between atoms: _185  and  _187
REMARK   84  A    between atoms: _187  and  _188
REMARK   85  A    between atoms: _187  and  _190
REMARK   86  A    between atoms: _190  and  _191
REMARK   87  A    between atoms: _194  and  _196
REMARK   88  A    between atoms: _196  and  _197
REMARK   89  A    between atoms: _196  and  _199
REMARK   90  A    between atoms: _199  and  _200
REMARK   91  A    between atoms: _203  and  _205
REMARK   92  A    between atoms: _205  and  _206
REMARK   93  A    between atoms: _205  and  _208
REMARK   94  A    between atoms: _208  and  _209
REMARK   95  A    between atoms: _209  and  _210
REMARK   96  A    between atoms: _210  and  _211
REMARK   97  A    between atoms: _220  and  _222
REMARK   98  A    between atoms: _222  and  _223
REMARK   99  A    between atoms: _222  and  _225
REMARK  100  A    between atoms: _225  and  _226
REMARK  101  A    between atoms: _226  and  _227
REMARK  102  A    between atoms: _232  and  _234
REMARK  103  A    between atoms: _234  and  _235
REMARK  104  A    between atoms: _234  and  _237
REMARK  105  A    between atoms: _239  and  _241
REMARK  106  A    between atoms: _241  and  _242
REMARK  107  A    between atoms: _241  and  _244
REMARK  108  A    between atoms: _244  and  _245
REMARK  109  A    between atoms: _247  and  _249
REMARK  110  A    between atoms: _249  and  _250
REMARK  111  A    between atoms: _249  and  _252
REMARK  112  A    between atoms: _252  and  _253
REMARK  113  A    between atoms: _256  and  _258
REMARK  114  A    between atoms: _258  and  _259
REMARK  115  A    between atoms: _261  and  _263
REMARK  116  A    between atoms: _263  and  _264
REMARK  117  A    between atoms: _266  and  _268
REMARK  118  A    between atoms: _268  and  _269
REMARK  119  A    between atoms: _268  and  _271
REMARK  120  A    between atoms: _271  and  _272
REMARK  121  A    between atoms: _275  and  _277
REMARK  122  A    between atoms: _277  and  _278
REMARK  123  A    between atoms: _277  and  _280
REMARK  124  A    between atoms: _283  and  _285
REMARK  125  A    between atoms: _285  and  _286
REMARK  126  A    between atoms: _285  and  _288
REMARK  127  A    between atoms: _288  and  _289
REMARK  128  A    between atoms: _292  and  _294
REMARK  129  A    between atoms: _294  and  _295
REMARK  130  A    between atoms: _294  and  _297
REMARK  131  A    between atoms: _297  and  _298
REMARK  132  A    between atoms: _298  and  _299
REMARK  133  A    between atoms: _301  and  _303
REMARK  134  A    between atoms: _303  and  _304
REMARK  135  A    between atoms: _303  and  _306
REMARK  136  A    between atoms: _306  and  _307
REMARK  137  A    between atoms: _310  and  _312
REMARK  138  A    between atoms: _312  and  _313
REMARK  139  A    between atoms: _315  and  _317
REMARK  140  A    between atoms: _317  and  _318
REMARK  141  A    between atoms: _317  and  _320
REMARK  142  A    between atoms: _320  and  _321
REMARK  143  A    between atoms: _321  and  _322
REMARK  144  A    between atoms: _322  and  _323
REMARK  145  A    between atoms: _332  and  _334
REMARK  146  A    between atoms: _334  and  _335
REMARK  147  A    between atoms: _334  and  _337
REMARK  148  A    between atoms: _337  and  _338
REMARK  149  A    between atoms: _343  and  _344
REMARK  150  A    between atoms: _346  and  _348
REMARK  151  A    between atoms: _348  and  _349
REMARK  152  A    between atoms: _348  and  _351
REMARK  153  A    between atoms: _351  and  _352
REMARK  154  A    between atoms: _358  and  _360
REMARK  155  A    between atoms: _360  and  _361
REMARK  156  A    between atoms: _364  and  _366
REMARK  157  A    between atoms: _366  and  _367
REMARK  158  A    between atoms: _366  and  _369
REMARK  159  A    between atoms: _369  and  _370
REMARK  160  A    between atoms: _375  and  _376
REMARK  161  A    between atoms: _378  and  _380
REMARK  162  A    between atoms: _380  and  _381
REMARK  163  A    between atoms: _380  and  _383
REMARK  164  A    between atoms: _383  and  _384
REMARK  165  A    between atoms: _394  and  _396
REMARK  166  A    between atoms: _396  and  _397
REMARK  167  A    between atoms: _399  and  _401
REMARK  168  A    between atoms: _401  and  _402
REMARK  169  A    between atoms: _401  and  _404
REMARK  170  A    between atoms: _404  and  _405
REMARK  171  A    between atoms: _405  and  _406
REMARK  172  A    between atoms: _409  and  _411
REMARK  173  A    between atoms: _411  and  _412
REMARK  174  A    between atoms: _414  and  _416
REMARK  175  A    between atoms: _416  and  _417
REMARK  176  A    between atoms: _416  and  _419
REMARK  177  A    between atoms: _419  and  _420
REMARK  178  A    between atoms: _422  and  _424
REMARK  179  A    between atoms: _424  and  _425
REMARK  180  A    between atoms: _424  and  _427
REMARK  181  A    between atoms: _427  and  _428
REMARK  182  A    between atoms: _430  and  _432
REMARK  183  A    between atoms: _432  and  _433
REMARK  184  A    between atoms: _436  and  _438
REMARK  185  A    between atoms: _438  and  _439
REMARK  186  A    between atoms: _438  and  _441
REMARK  187  A    between atoms: _441  and  _442
REMARK  188  A    between atoms: _442  and  _443
REMARK  189  A    between atoms: _443  and  _444
REMARK  190  A    between atoms: _453  and  _455
REMARK  191  A    between atoms: _455  and  _456
REMARK  192  A    between atoms: _455  and  _458
REMARK  193  A    between atoms: _458  and  _459
REMARK  194  A    between atoms: _464  and  _466
REMARK  195  A    between atoms: _466  and  _467
REMARK  196  A    between atoms: _466  and  _469
REMARK  197  A    between atoms: _469  and  _470
REMARK  198  A    between atoms: _470  and  _471
REMARK  199  A    between atoms: _471  and  _472
REMARK  200  A    between atoms: _481  and  _483
REMARK  201  A    between atoms: _483  and  _484
REMARK  202  A    between atoms: _483  and  _486
REMARK  203  A    between atoms: _486  and  _487
REMARK  204  A    between atoms: _492  and  _493
REMARK  205  A    between atoms: _495  and  _497
REMARK  206  A    between atoms: _497  and  _498
REMARK  207  A    between atoms: _497  and  _500
REMARK  208  A    between atoms: _500  and  _501
REMARK  209  A    between atoms: _504  and  _506
REMARK  210  A    between atoms: _506  and  _507
REMARK  211  A    between atoms: _506  and  _509
REMARK  212  A    between atoms: _509  and  _510
REMARK  213  A    between atoms: _510  and  _511
REMARK  214  A    between atoms: _514  and  _516
REMARK  215  A    between atoms: _516  and  _517
REMARK  216  A    between atoms: _516  and  _519
REMARK  217  A    between atoms: _519  and  _520
REMARK  218  A    between atoms: _520  and  _521
REMARK  219  A    between atoms: _524  and  _526
REMARK  220  A    between atoms: _526  and  _527
REMARK  221  A    between atoms: _529  and  _531
REMARK  222  A    between atoms: _531  and  _532
REMARK  223  A    between atoms: _531  and  _534
REMARK  224  A    between atoms: _537  and  _539
REMARK  225  A    between atoms: _539  and  _540
REMARK  226  A    between atoms: _539  and  _542
REMARK  227  A    between atoms: _542  and  _543
REMARK  228  A    between atoms: _546  and  _548
REMARK  229  A    between atoms: _548  and  _549
REMARK  230  A    between atoms: _548  and  _551
REMARK  231  A    between atoms: _554  and  _556
REMARK  232  A    between atoms: _556  and  _557
REMARK  233  A    between atoms: _556  and  _559
REMARK  234  A    between atoms: _559  and  _560
REMARK  235  A    between atoms: _560  and  _561
REMARK  236  A    between atoms: _564  and  _566
REMARK  237  A    between atoms: _566  and  _567
REMARK  238  A    between atoms: _566  and  _569
REMARK  239  A    between atoms: _569  and  _570
REMARK  240  A    between atoms: _575  and  _577
REMARK  241  A    between atoms: _577  and  _578
REMARK  242  A    between atoms: _577  and  _580
REMARK  243  A    between atoms: _580  and  _581
REMARK  244  A    between atoms: _584  and  _586
REMARK  245  A    between atoms: _586  and  _587
REMARK  246  A    between atoms: _586  and  _589
REMARK                            x       y       z     vdW  Elec       q    Type
REMARK                         _______ _______ _______ _____ _____    ______ ____
ROOT
ATOM      1  C   GLU A   2     -25.481  33.665  37.012  0.00  0.00    +0.241 C 
ATOM      2  O   GLU A   2     -24.773  34.368  37.725  0.00  0.00    -0.273 OA
ATOM      3  N   GLY A   3     -25.809  32.411  37.316  0.00  0.00    -0.295 N 
ATOM      4  H   GLY A   3     -26.422  31.877  36.668  0.00  0.00    +0.150 HD
ENDROOT
BRANCH   3   5
ATOM      5  CA  GLY A   3     -25.333  31.769  38.530  0.00  0.00    +0.176 C 
BRANCH   5   6
ATOM      6  C   GLY A   3     -25.155  30.279  38.283  0.00  0.00    +0.243 C 
ATOM      7  N   VAL A   4     -24.416  29.603  39.158  0.00  0.00    -0.297 N 
ATOM      8  H   VAL A   4     -24.002  30.106  39.969  0.00  0.00    +0.150 HD
ATOM      9  O   GLY A   3     -25.692  29.746  37.306  0.00  0.00    -0.273 OA
BRANCH   7  10
ATOM     10  CA  VAL A   4     -24.172  28.174  39.007  0.00  0.00    +0.149 C 
BRANCH  10  11
ATOM     11  C   VAL A   4     -24.690  27.340  40.179  0.00  0.00    +0.241 C 
ATOM     12  O   VAL A   4     -25.033  27.870  41.241  0.00  0.00    -0.273 OA
ATOM     13  N   ASP A   5     -24.745  26.030  39.960  0.00  0.00    -0.298 N 
ATOM     14  H   ASP A   5     -24.469  25.675  39.022  0.00  0.00    +0.150 HD
BRANCH  13  15
ATOM     15  CA  ASP A   5     -25.173  25.064  40.967  0.00  0.00    +0.148 C 
BRANCH  15  16
ATOM     16  C   ASP A   5     -23.857  24.476  41.477  0.00  0.00    +0.227 C 
ATOM     17  O   ASP A   5     -23.002  24.099  40.677  0.00  0.00    -0.286 OA
ENDBRANCH  15  16
BRANCH  15  18
ATOM     18  CB  ASP A   5     -26.042  23.992  40.305  0.00  0.00    +0.142 C 
BRANCH  18  19
ATOM     19  CG  ASP A   5     -26.676  23.046  41.305  0.00  0.00    +0.367 C 
ATOM     20  OD2 ASP A   5     -26.686  23.354  42.515  0.00  0.00    -0.246 OA
ATOM     21  OD1 ASP A   5     -27.179  21.992  40.867  0.00  0.00    -0.246 OA
ENDBRANCH  18  19
ENDBRANCH  15  18
ENDBRANCH  13  15
ENDBRANCH  10  11
BRANCH  10  22
ATOM     22  CB  VAL A   4     -22.662  27.886  38.850  0.00  0.00    +0.027 C 
ATOM     23  CG2 VAL A   4     -21.929  28.230  40.144  0.00  0.00    +0.002 C 
ATOM     24  CG1 VAL A   4     -22.093  28.691  37.691  0.00  0.00    +0.002 C 
ENDBRANCH  10  22
ENDBRANCH   7  10
ENDBRANCH   5   6
ENDBRANCH   3   5
BRANCH   1  25
ATOM     25  CA  GLU A   2     -26.043  34.198  35.699  0.00  0.00    +0.149 C 
BRANCH  25  27
ATOM     26  C   GLU A   1     -26.923  32.797  33.910  0.00  0.00    +0.238 C 
ATOM     27  N   GLU A   2     -26.992  33.231  35.165  0.00  0.00    -0.297 N 
ATOM     28  H   GLU A   2     -27.746  32.869  35.783  0.00  0.00    +0.150 HD
ATOM     29  O   GLU A   1     -26.081  33.194  33.102  0.00  0.00    -0.274 OA
BRANCH  26  30
ATOM     30  CA  GLU A   1     -27.962  31.758  33.511  0.00  0.00    +0.145 C 
BRANCH  30  31
ATOM     31  N   GLU A   1     -28.478  31.922  32.157  0.00  0.00    -0.238 NA
ATOM     32  H   GLU A   1     -28.189  31.252  31.416  0.00  0.00    +0.142 HD
ENDBRANCH  30  31
BRANCH  30  33
ATOM     33  CB  GLU A   1     -27.351  30.366  33.681  0.00  0.00    +0.038 C 
BRANCH  33  34
ATOM     34  CG  GLU A   1     -28.355  29.224  33.679  0.00  0.00    +0.116 C 
BRANCH  34  35
ATOM     35  CD  GLU A   1     -27.720  27.919  34.108  0.00  0.00    +0.365 C 
ATOM     36  OE2 GLU A   1     -28.064  27.420  35.200  0.00  0.00    -0.246 OA
ATOM     37  OE1 GLU A   1     -26.863  27.401  33.362  0.00  0.00    -0.246 OA
ENDBRANCH  34  35
ENDBRANCH  33  34
ENDBRANCH  30  33
ENDBRANCH  26  30
ENDBRANCH  25  27
BRANCH  25  38
ATOM     38  CB  GLU A   2     -26.710  35.561  35.918  0.00  0.00    +0.041 C 
BRANCH  38  39
ATOM     39  CG  GLU A   2     -27.269  36.189  34.642  0.00  0.00    +0.116 C 
BRANCH  39  40
ATOM     40  CD  GLU A   2     -27.541  37.680  34.779  0.00  0.00    +0.365 C 
ATOM     41  OE2 GLU A   2     -26.853  38.348  35.578  0.00  0.00    -0.246 OA
ATOM     42  OE1 GLU A   2     -28.442  38.189  34.074  0.00  0.00    -0.246 OA
ENDBRANCH  39  40
ENDBRANCH  38  39
ENDBRANCH  25  38
ENDBRANCH   1  25
TORSDOF 19
REMARK  Name = ../refined-set-2016/1pvn/1pvn_pocket.pdb
REMARK  246 active torsions:
REMARK  status: ('A' for Active; 'I' for Inactive)
REMARK    1  A    between atoms: _1  and  _3
REMARK    2  A    between atoms: _3  and  _4
REMARK    3  A    between atoms: _3  and  _6
REMARK    4  A    between atoms: _9  and  _11
REMARK    5  A    between atoms: _11  and  _12
REMARK    6  A    between atoms: _11  and  _14
REMARK    7  A    between atoms: _14  and  _15
REMARK    8  A    between atoms: _17  and  _19
REMARK    9  A    between atoms: _19  and  _20
REMARK   10  A    between atoms: _23  and  _25
REMARK   11  A    between atoms: _25  and  _26
REMARK   12  A    between atoms: _25  and  _28
REMARK   13  A    between atoms: _28  and  _29
REMARK   14  A    between atoms: _32  and  _34
REMARK   15  A    between atoms: _34  and  _35
REMARK   16  A    between atoms: _34  and  _37
REMARK   17  A    between atoms: _37  and  _38
REMARK   18  A    between atoms: _38  and  _39
REMARK   19  A    between atoms: _41  and  _43
REMARK   20  A    between atoms: _43  and  _44
REMARK   21  A    between atoms: _43  and  _46
REMARK   22  A    between atoms: _46  and  _47
REMARK   23  A    between atoms: _47  and  _48
REMARK   24  A    between atoms: _53  and  _55
REMARK   25  A    between atoms: _55  and  _56
REMARK   26  A    between atoms: _55  and  _58
REMARK   27  A    between atoms: _58  and  _59
REMARK   28  A    between atoms: _61  and  _63
REMARK   29  A    between atoms: _63  and  _64
REMARK   30  A    between atoms: _63  and  _66
REMARK   31  A    between atoms: _69  and  _71
REMARK   32  A    between atoms: _71  and  _72
REMARK   33  A    between atoms: _71  and  _74
REMARK   34  A    between atoms: _74  and  _75
REMARK   35  A    between atoms: _78  and  _80
REMARK   36  A    between atoms: _80  and  _81
REMARK   37  A    between atoms: _80  and  _83
REMARK   38  A    between atoms: _83  and  _84
REMARK   39  A    between atoms: _86  and  _88
REMARK   40  A    between atoms: _88  and  _89
REMARK   41  A    between atoms: _88  and  _91
REMARK   42  A    between atoms: _91  and  _92
REMARK   43  A    between atoms: _94  and  _96
REMARK   44  A    between atoms: _96  and  _97
REMARK   45  A    between atoms: _99  and  _101
REMARK   46  A    between atoms: _101  and  _102
REMARK   47  A    between atoms: _101  and  _104
REMARK   48  A    between atoms: _104  and  _105
REMARK   49  A    between atoms: _110  and  _112
REMARK   50  A    between atoms: _112  and  _113
REMARK   51  A    between atoms: _112  and  _115
REMARK   52  A    between atoms: _115  and  _116
REMARK   53  A    between atoms: _116  and  _117
REMARK   54  A    between atoms: _117  and  _118
REMARK   55  A    between atoms: _118  and  _119
REMARK   56  A    between atoms: _123  and  _125
REMARK   57  A    between atoms: _125  and  _126
REMARK   58  A    between atoms: _125  and  _128
REMARK   59  A    between atoms: _128  and  _129
REMARK   60  A    between atoms: _132  and  _134
REMARK   61  A    between atoms: _134  and  _135
REMARK   62  A    between atoms: _137  and  _139
REMARK   63  A    between atoms: _139  and  _140
REMARK   64  A    between atoms: _139  and  _142
REMARK   65  A    between atoms: _142  and  _143
REMARK   66  A    between atoms: _146  and  _148
REMARK   67  A    between atoms: _148  and  _149
REMARK   68  A    between atoms: _151  and  _153
REMARK   69  A    between atoms: _153  and  _154
REMARK   70  A    between atoms: _156  and  _158
REMARK   71  A    between atoms: _158  and  _159
REMARK   72  A    between atoms: _161  and  _163
REMARK   73  A    between atoms: _163  and  _164
REMARK   74  A    between atoms: _163  and  _166
REMARK   75  A    between atoms: _166  and  _167
REMARK   76  A    between atoms: _169  and  _171
REMARK   77  A    between atoms: _171  and  _172
REMARK   78  A    between atoms: _171  and  _174
REMARK   79  A    between atoms: _174  and  _175
REMARK   80  A    between atoms: _178  and  _180
REMARK   81  A    between atoms: _180  and  _181
REMARK   82  A    between atoms: _180  and  _183
REMARK   83  A    between atoms: _185  and  _187
REMARK   84  A    between atoms: _187  and  _188
REMARK   85  A    between atoms: _187  and  _190
REMARK   86  A    between atoms: _190  and  _191
REMARK   87  A    between atoms: _194  and  _196
REMARK   88  A    between atoms: _196  and  _197
REMARK   89  A    between atoms: _196  and  _199
REMARK   90  A    between atoms: _199  and  _200
REMARK   91  A    between atoms: _203  and  _205
REMARK   92  A    between atoms: _205  and  _206
REMARK   93  A    between atoms: _205  and  _208
REMARK   94  A    between atoms: _208  and  _209
REMARK   95  A    between atoms: _209  and  _210
REMARK   96  A    between atoms: _210  and  _211
REMARK   97  A    between atoms: _220  and  _222
REMARK   98  A    between atoms: _222  and  _223
REMARK   99  A    between atoms: _222  and  _225
REMARK  100  A    between atoms: _225  and  _226
REMARK  101  A    between atoms: _226  and  _227
REMARK  102  A    between atoms: _232  and  _234
REMARK  103  A    between atoms: _234  and  _235
REMARK  104  A    between atoms: _234  and  _237
REMARK  105  A    between atoms: _239  and  _241
REMARK  106  A    between atoms: _241  and  _242
REMARK  107  A    between atoms: _241  and  _244
REMARK  108  A    between atoms: _244  and  _245
REMARK  109  A    between atoms: _247  and  _249
REMARK  110  A    between atoms: _249  and  _250
REMARK  111  A    between atoms: _249  and  _252
REMARK  112  A    between atoms: _252  and  _253
REMARK  113  A    between atoms: _256  and  _258
REMARK  114  A    between atoms: _258  and  _259
REMARK  115  A    between atoms: _261  and  _263
REMARK  116  A    between atoms: _263  and  _264
REMARK  117  A    between atoms: _266  and  _268
REMARK  118  A    between atoms: _268  and  _269
REMARK  119  A    between atoms: _268  and  _271
REMARK  120  A    between atoms: _271  and  _272
REMARK  121  A    between atoms: _275  and  _277
REMARK  122  A    between atoms: _277  and  _278
REMARK  123  A    between atoms: _277  and  _280
REMARK  124  A    between atoms: _283  and  _285
REMARK  125  A    between atoms: _285  and  _286
REMARK  126  A    between atoms: _285  and  _288
REMARK  127  A    between atoms: _288  and  _289
REMARK  128  A    between atoms: _292  and  _294
REMARK  129  A    between atoms: _294  and  _295
REMARK  130  A    between atoms: _294  and  _297
REMARK  131  A    between atoms: _297  and  _298
REMARK  132  A    between atoms: _298  and  _299
REMARK  133  A    between atoms: _301  and  _303
REMARK  134  A    between atoms: _303  and  _304
REMARK  135  A    between atoms: _303  and  _306
REMARK  136  A    between atoms: _306  and  _307
REMARK  137  A    between atoms: _310  and  _312
REMARK  138  A    between atoms: _312  and  _313
REMARK  139  A    between atoms: _315  and  _317
REMARK  140  A    between atoms: _317  and  _318
REMARK  141  A    between atoms: _317  and  _320
REMARK  142  A    between atoms: _320  and  _321
REMARK  143  A    between atoms: _321  and  _322
REMARK  144  A    between atoms: _322  and  _323
REMARK  145  A    between atoms: _332  and  _334
REMARK  146  A    between atoms: _334  and  _335
REMARK  147  A    between atoms: _334  and  _337
REMARK  148  A    between atoms: _337  and  _338
REMARK  149  A    between atoms: _343  and  _344
REMARK  150  A    between atoms: _346  and  _348
REMARK  151  A    between atoms: _348  and  _349
REMARK  152  A    between atoms: _348  and  _351
REMARK  153  A    between atoms: _351  and  _352
REMARK  154  A    between atoms: _358  and  _360
REMARK  155  A    between atoms: _360  and  _361
REMARK  156  A    between atoms: _364  and  _366
REMARK  157  A    between atoms: _366  and  _367
REMARK  158  A    between atoms: _366  and  _369
REMARK  159  A    between atoms: _369  and  _370
REMARK  160  A    between atoms: _375  and  _376
REMARK  161  A    between atoms: _378  and  _380
REMARK  162  A    between atoms: _380  and  _381
REMARK  163  A    between atoms: _380  and  _383
REMARK  164  A    between atoms: _383  and  _384
REMARK  165  A    between atoms: _394  and  _396
REMARK  166  A    between atoms: _396  and  _397
REMARK  167  A    between atoms: _399  and  _401
REMARK  168  A    between atoms: _401  and  _402
REMARK  169  A    between atoms: _401  and  _404
REMARK  170  A    between atoms: _404  and  _405
REMARK  171  A    between atoms: _405  and  _406
REMARK  172  A    between atoms: _409  and  _411
REMARK  173  A    between atoms: _411  and  _412
REMARK  174  A    between atoms: _414  and  _416
REMARK  175  A    between atoms: _416  and  _417
REMARK  176  A    between atoms: _416  and  _419
REMARK  177  A    between atoms: _419  and  _420
REMARK  178  A    between atoms: _422  and  _424
REMARK  179  A    between atoms: _424  and  _425
REMARK  180  A    between atoms: _424  and  _427
REMARK  181  A    between atoms: _427  and  _428
REMARK  182  A    between atoms: _430  and  _432
REMARK  183  A    between atoms: _432  and  _433
REMARK  184  A    between atoms: _436  and  _438
REMARK  185  A    between atoms: _438  and  _439
REMARK  186  A    between atoms: _438  and  _441
REMARK  187  A    between atoms: _441  and  _442
REMARK  188  A    between atoms: _442  and  _443
REMARK  189  A    between atoms: _443  and  _444
REMARK  190  A    between atoms: _453  and  _455
REMARK  191  A    between atoms: _455  and  _456
REMARK  192  A    between atoms: _455  and  _458
REMARK  193  A    between atoms: _458  and  _459
REMARK  194  A    between atoms: _464  and  _466
REMARK  195  A    between atoms: _466  and  _467
REMARK  196  A    between atoms: _466  and  _469
REMARK  197  A    between atoms: _469  and  _470
REMARK  198  A    between atoms: _470  and  _471
REMARK  199  A    between atoms: _471  and  _472
REMARK  200  A    between atoms: _481  and  _483
REMARK  201  A    between atoms: _483  and  _484
REMARK  202  A    between atoms: _483  and  _486
REMARK  203  A    between atoms: _486  and  _487
REMARK  204  A    between atoms: _492  and  _493
REMARK  205  A    between atoms: _495  and  _497
REMARK  206  A    between atoms: _497  and  _498
REMARK  207  A    between atoms: _497  and  _500
REMARK  208  A    between atoms: _500  and  _501
REMARK  209  A    between atoms: _504  and  _506
REMARK  210  A    between atoms: _506  and  _507
REMARK  211  A    between atoms: _506  and  _509
REMARK  212  A    between atoms: _509  and  _510
REMARK  213  A    between atoms: _510  and  _511
REMARK  214  A    between atoms: _514  and  _516
REMARK  215  A    between atoms: _516  and  _517
REMARK  216  A    between atoms: _516  and  _519
REMARK  217  A    between atoms: _519  and  _520
REMARK  218  A    between atoms: _520  and  _521
REMARK  219  A    between atoms: _524  and  _526
REMARK  220  A    between atoms: _526  and  _527
REMARK  221  A    between atoms: _529  and  _531
REMARK  222  A    between atoms: _531  and  _532
REMARK  223  A    between atoms: _531  and  _534
REMARK  224  A    between atoms: _537  and  _539
REMARK  225  A    between atoms: _539  and  _540
REMARK  226  A    between atoms: _539  and  _542
REMARK  227  A    between atoms: _542  and  _543
REMARK  228  A    between atoms: _546  and  _548
REMARK  229  A    between atoms: _548  and  _549
REMARK  230  A    between atoms: _548  and  _551
REMARK  231  A    between atoms: _554  and  _556
REMARK  232  A    between atoms: _556  and  _557
REMARK  233  A    between atoms: _556  and  _559
REMARK  234  A    between atoms: _559  and  _560
REMARK  235  A    between atoms: _560  and  _561
REMARK  236  A    between atoms: _564  and  _566
REMARK  237  A    between atoms: _566  and  _567
REMARK  238  A    between atoms: _566  and  _569
REMARK  239  A    between atoms: _569  and  _570
REMARK  240  A    between atoms: _575  and  _577
REMARK  241  A    between atoms: _577  and  _578
REMARK  242  A    between atoms: _577  and  _580
REMARK  243  A    between atoms: _580  and  _581
REMARK  244  A    between atoms: _584  and  _586
REMARK  245  A    between atoms: _586  and  _587
REMARK  246  A    between atoms: _586  and  _589
REMARK                            x       y       z     vdW  Elec       q    Type
REMARK                         _______ _______ _______ _____ _____    ______ ____
ROOT
ATOM      1  CA  VAL A   1     -19.422  23.955  49.466  0.00  0.00    +0.133 C 
ENDROOT
BRANCH   1   2
ATOM      2  CB  VAL A   1     -20.052  25.257  50.009  0.00  0.00    +0.023 C 
ATOM      3  CG2 VAL A   1     -21.362  24.950  50.721  0.00  0.00    +0.002 C 
ATOM      4  CG1 VAL A   1     -20.280  26.234  48.870  0.00  0.00    +0.002 C 
ENDBRANCH   1   2
BRANCH   1   5
ATOM      5  N   VAL A   1     -20.331  23.238  48.582  0.00  0.00    -0.239 NA
ATOM      6  H   VAL A   1     -21.196  22.818  48.979  0.00  0.00    +0.142 HD
ENDBRANCH   1   5
BRANCH   1   7
ATOM      7  C   VAL A   1     -19.130  23.016  50.627  0.00  0.00    +0.224 C 
ATOM      8  O   VAL A   1     -19.958  22.175  50.965  0.00  0.00    -0.287 OA
ENDBRANCH   1   7
TORSDOF 3
REMARK  Name = ../refined-set-2016/1pvn/1pvn_pocket.pdb
REMARK  246 active torsions:
REMARK  status: ('A' for Active; 'I' for Inactive)
REMARK    1  A    between atoms: _1  and  _3
REMARK    2  A    between atoms: _3  and  _4
REMARK    3  A    between atoms: _3  and  _6
REMARK    4  A    between atoms: _9  and  _11
REMARK    5  A    between atoms: _11  and  _12
REMARK    6  A    between atoms: _11  and  _14
REMARK    7  A    between atoms: _14  and  _15
REMARK    8  A    between atoms: _17  and  _19
REMARK    9  A    between atoms: _19  and  _20
REMARK   10  A    between atoms: _23  and  _25
REMARK   11  A    between atoms: _25  and  _26
REMARK   12  A    between atoms: _25  and  _28
REMARK   13  A    between atoms: _28  and  _29
REMARK   14  A    between atoms: _32  and  _34
REMARK   15  A    between atoms: _34  and  _35
REMARK   16  A    between atoms: _34  and  _37
REMARK   17  A    between atoms: _37  and  _38
REMARK   18  A    between atoms: _38  and  _39
REMARK   19  A    between atoms: _41  and  _43
REMARK   20  A    between atoms: _43  and  _44
REMARK   21  A    between atoms: _43  and  _46
REMARK   22  A    between atoms: _46  and  _47
REMARK   23  A    between atoms: _47  and  _48
REMARK   24  A    between atoms: _53  and  _55
REMARK   25  A    between atoms: _55  and  _56
REMARK   26  A    between atoms: _55  and  _58
REMARK   27  A    between atoms: _58  and  _59
REMARK   28  A    between atoms: _61  and  _63
REMARK   29  A    between atoms: _63  and  _64
REMARK   30  A    between atoms: _63  and  _66
REMARK   31  A    between atoms: _69  and  _71
REMARK   32  A    between atoms: _71  and  _72
REMARK   33  A    between atoms: _71  and  _74
REMARK   34  A    between atoms: _74  and  _75
REMARK   35  A    between atoms: _78  and  _80
REMARK   36  A    between atoms: _80  and  _81
REMARK   37  A    between atoms: _80  and  _83
REMARK   38  A    between atoms: _83  and  _84
REMARK   39  A    between atoms: _86  and  _88
REMARK   40  A    between atoms: _88  and  _89
REMARK   41  A    between atoms: _88  and  _91
REMARK   42  A    between atoms: _91  and  _92
REMARK   43  A    between atoms: _94  and  _96
REMARK   44  A    between atoms: _96  and  _97
REMARK   45  A    between atoms: _99  and  _101
REMARK   46  A    between atoms: _101  and  _102
REMARK   47  A    between atoms: _101  and  _104
REMARK   48  A    between atoms: _104  and  _105
REMARK   49  A    between atoms: _110  and  _112
REMARK   50  A    between atoms: _112  and  _113
REMARK   51  A    between atoms: _112  and  _115
REMARK   52  A    between atoms: _115  and  _116
REMARK   53  A    between atoms: _116  and  _117
REMARK   54  A    between atoms: _117  and  _118
REMARK   55  A    between atoms: _118  and  _119
REMARK   56  A    between atoms: _123  and  _125
REMARK   57  A    between atoms: _125  and  _126
REMARK   58  A    between atoms: _125  and  _128
REMARK   59  A    between atoms: _128  and  _129
REMARK   60  A    between atoms: _132  and  _134
REMARK   61  A    between atoms: _134  and  _135
REMARK   62  A    between atoms: _137  and  _139
REMARK   63  A    between atoms: _139  and  _140
REMARK   64  A    between atoms: _139  and  _142
REMARK   65  A    between atoms: _142  and  _143
REMARK   66  A    between atoms: _146  and  _148
REMARK   67  A    between atoms: _148  and  _149
REMARK   68  A    between atoms: _151  and  _153
REMARK   69  A    between atoms: _153  and  _154
REMARK   70  A    between atoms: _156  and  _158
REMARK   71  A    between atoms: _158  and  _159
REMARK   72  A    between atoms: _161  and  _163
REMARK   73  A    between atoms: _163  and  _164
REMARK   74  A    between atoms: _163  and  _166
REMARK   75  A    between atoms: _166  and  _167
REMARK   76  A    between atoms: _169  and  _171
REMARK   77  A    between atoms: _171  and  _172
REMARK   78  A    between atoms: _171  and  _174
REMARK   79  A    between atoms: _174  and  _175
REMARK   80  A    between atoms: _178  and  _180
REMARK   81  A    between atoms: _180  and  _181
REMARK   82  A    between atoms: _180  and  _183
REMARK   83  A    between atoms: _185  and  _187
REMARK   84  A    between atoms: _187  and  _188
REMARK   85  A    between atoms: _187  and  _190
REMARK   86  A    between atoms: _190  and  _191
REMARK   87  A    between atoms: _194  and  _196
REMARK   88  A    between atoms: _196  and  _197
REMARK   89  A    between atoms: _196  and  _199
REMARK   90  A    between atoms: _199  and  _200
REMARK   91  A    between atoms: _203  and  _205
REMARK   92  A    between atoms: _205  and  _206
REMARK   93  A    between atoms: _205  and  _208
REMARK   94  A    between atoms: _208  and  _209
REMARK   95  A    between atoms: _209  and  _210
REMARK   96  A    between atoms: _210  and  _211
REMARK   97  A    between atoms: _220  and  _222
REMARK   98  A    between atoms: _222  and  _223
REMARK   99  A    between atoms: _222  and  _225
REMARK  100  A    between atoms: _225  and  _226
REMARK  101  A    between atoms: _226  and  _227
REMARK  102  A    between atoms: _232  and  _234
REMARK  103  A    between atoms: _234  and  _235
REMARK  104  A    between atoms: _234  and  _237
REMARK  105  A    between atoms: _239  and  _241
REMARK  106  A    between atoms: _241  and  _242
REMARK  107  A    between atoms: _241  and  _244
REMARK  108  A    between atoms: _244  and  _245
REMARK  109  A    between atoms: _247  and  _249
REMARK  110  A    between atoms: _249  and  _250
REMARK  111  A    between atoms: _249  and  _252
REMARK  112  A    between atoms: _252  and  _253
REMARK  113  A    between atoms: _256  and  _258
REMARK  114  A    between atoms: _258  and  _259
REMARK  115  A    between atoms: _261  and  _263
REMARK  116  A    between atoms: _263  and  _264
REMARK  117  A    between atoms: _266  and  _268
REMARK  118  A    between atoms: _268  and  _269
REMARK  119  A    between atoms: _268  and  _271
REMARK  120  A    between atoms: _271  and  _272
REMARK  121  A    between atoms: _275  and  _277
REMARK  122  A    between atoms: _277  and  _278
REMARK  123  A    between atoms: _277  and  _280
REMARK  124  A    between atoms: _283  and  _285
REMARK  125  A    between atoms: _285  and  _286
REMARK  126  A    between atoms: _285  and  _288
REMARK  127  A    between atoms: _288  and  _289
REMARK  128  A    between atoms: _292  and  _294
REMARK  129  A    between atoms: _294  and  _295
REMARK  130  A    between atoms: _294  and  _297
REMARK  131  A    between atoms: _297  and  _298
REMARK  132  A    between atoms: _298  and  _299
REMARK  133  A    between atoms: _301  and  _303
REMARK  134  A    between atoms: _303  and  _304
REMARK  135  A    between atoms: _303  and  _306
REMARK  136  A    between atoms: _306  and  _307
REMARK  137  A    between atoms: _310  and  _312
REMARK  138  A    between atoms: _312  and  _313
REMARK  139  A    between atoms: _315  and  _317
REMARK  140  A    between atoms: _317  and  _318
REMARK  141  A    between atoms: _317  and  _320
REMARK  142  A    between atoms: _320  and  _321
REMARK  143  A    between atoms: _321  and  _322
REMARK  144  A    between atoms: _322  and  _323
REMARK  145  A    between atoms: _332  and  _334
REMARK  146  A    between atoms: _334  and  _335
REMARK  147  A    between atoms: _334  and  _337
REMARK  148  A    between atoms: _337  and  _338
REMARK  149  A    between atoms: _343  and  _344
REMARK  150  A    between atoms: _346  and  _348
REMARK  151  A    between atoms: _348  and  _349
REMARK  152  A    between atoms: _348  and  _351
REMARK  153  A    between atoms: _351  and  _352
REMARK  154  A    between atoms: _358  and  _360
REMARK  155  A    between atoms: _360  and  _361
REMARK  156  A    between atoms: _364  and  _366
REMARK  157  A    between atoms: _366  and  _367
REMARK  158  A    between atoms: _366  and  _369
REMARK  159  A    between atoms: _369  and  _370
REMARK  160  A    between atoms: _375  and  _376
REMARK  161  A    between atoms: _378  and  _380
REMARK  162  A    between atoms: _380  and  _381
REMARK  163  A    between atoms: _380  and  _383
REMARK  164  A    between atoms: _383  and  _384
REMARK  165  A    between atoms: _394  and  _396
REMARK  166  A    between atoms: _396  and  _397
REMARK  167  A    between atoms: _399  and  _401
REMARK  168  A    between atoms: _401  and  _402
REMARK  169  A    between atoms: _401  and  _404
REMARK  170  A    between atoms: _404  and  _405
REMARK  171  A    between atoms: _405  and  _406
REMARK  172  A    between atoms: _409  and  _411
REMARK  173  A    between atoms: _411  and  _412
REMARK  174  A    between atoms: _414  and  _416
REMARK  175  A    between atoms: _416  and  _417
REMARK  176  A    between atoms: _416  and  _419
REMARK  177  A    between atoms: _419  and  _420
REMARK  178  A    between atoms: _422  and  _424
REMARK  179  A    between atoms: _424  and  _425
REMARK  180  A    between atoms: _424  and  _427
REMARK  181  A    between atoms: _427  and  _428
REMARK  182  A    between atoms: _430  and  _432
REMARK  183  A    between atoms: _432  and  _433
REMARK  184  A    between atoms: _436  and  _438
REMARK  185  A    between atoms: _438  and  _439
REMARK  186  A    between atoms: _438  and  _441
REMARK  187  A    between atoms: _441  and  _442
REMARK  188  A    between atoms: _442  and  _443
REMARK  189  A    between atoms: _443  and  _444
REMARK  190  A    between atoms: _453  and  _455
REMARK  191  A    between atoms: _455  and  _456
REMARK  192  A    between atoms: _455  and  _458
REMARK  193  A    between atoms: _458  and  _459
REMARK  194  A    between atoms: _464  and  _466
REMARK  195  A    between atoms: _466  and  _467
REMARK  196  A    between atoms: _466  and  _469
REMARK  197  A    between atoms: _469  and  _470
REMARK  198  A    between atoms: _470  and  _471
REMARK  199  A    between atoms: _471  and  _472
REMARK  200  A    between atoms: _481  and  _483
REMARK  201  A    between atoms: _483  and  _484
REMARK  202  A    between atoms: _483  and  _486
REMARK  203  A    between atoms: _486  and  _487
REMARK  204  A    between atoms: _492  and  _493
REMARK  205  A    between atoms: _495  and  _497
REMARK  206  A    between atoms: _497  and  _498
REMARK  207  A    between atoms: _497  and  _500
REMARK  208  A    between atoms: _500  and  _501
REMARK  209  A    between atoms: _504  and  _506
REMARK  210  A    between atoms: _506  and  _507
REMARK  211  A    between atoms: _506  and  _509
REMARK  212  A    between atoms: _509  and  _510
REMARK  213  A    between atoms: _510  and  _511
REMARK  214  A    between atoms: _514  and  _516
REMARK  215  A    between atoms: _516  and  _517
REMARK  216  A    between atoms: _516  and  _519
REMARK  217  A    between atoms: _519  and  _520
REMARK  218  A    between atoms: _520  and  _521
REMARK  219  A    between atoms: _524  and  _526
REMARK  220  A    between atoms: _526  and  _527
REMARK  221  A    between atoms: _529  and  _531
REMARK  222  A    between atoms: _531  and  _532
REMARK  223  A    between atoms: _531  and  _534
REMARK  224  A    between atoms: _537  and  _539
REMARK  225  A    between atoms: _539  and  _540
REMARK  226  A    between atoms: _539  and  _542
REMARK  227  A    between atoms: _542  and  _543
REMARK  228  A    between atoms: _546  and  _548
REMARK  229  A    between atoms: _548  and  _549
REMARK  230  A    between atoms: _548  and  _551
REMARK  231  A    between atoms: _554  and  _556
REMARK  232  A    between atoms: _556  and  _557
REMARK  233  A    between atoms: _556  and  _559
REMARK  234  A    between atoms: _559  and  _560
REMARK  235  A    between atoms: _560  and  _561
REMARK  236  A    between atoms: _564  and  _566
REMARK  237  A    between atoms: _566  and  _567
REMARK  238  A    between atoms: _566  and  _569
REMARK  239  A    between atoms: _569  and  _570
REMARK  240  A    between atoms: _575  and  _577
REMARK  241  A    between atoms: _577  and  _578
REMARK  242  A    between atoms: _577  and  _580
REMARK  243  A    between atoms: _580  and  _581
REMARK  244  A    between atoms: _584  and  _586
REMARK  245  A    between atoms: _586  and  _587
REMARK  246  A    between atoms: _586  and  _589
REMARK                            x       y       z     vdW  Elec       q    Type
REMARK                         _______ _______ _______ _____ _____    ______ ____
ROOT
ATOM      1  CA  GLU A   1     -13.935  37.515  42.458  0.00  0.00    +0.134 C 
ENDROOT
BRANCH   1   2
ATOM      2  N   GLU A   1     -12.669  37.350  41.750  0.00  0.00    -0.239 NA
ATOM      3  H   GLU A   1     -11.980  38.129  41.762  0.00  0.00    +0.142 HD
ENDBRANCH   1   2
BRANCH   1   4
ATOM      4  C   GLU A   1     -15.129  37.491  41.494  0.00  0.00    +0.224 C 
ATOM      5  O   GLU A   1     -16.236  37.095  41.866  0.00  0.00    -0.287 OA
ENDBRANCH   1   4
BRANCH   1   6
ATOM      6  CB  GLU A   1     -13.912  38.835  43.237  0.00  0.00    +0.037 C 
BRANCH   6   7
ATOM      7  CG  GLU A   1     -15.249  39.259  43.820  0.00  0.00    +0.116 C 
BRANCH   7   8
ATOM      8  CD  GLU A   1     -15.150  40.577  44.549  0.00  0.00    +0.365 C 
ATOM      9  OE2 GLU A   1     -14.803  40.562  45.750  0.00  0.00    -0.246 OA
ATOM     10  OE1 GLU A   1     -15.401  41.620  43.911  0.00  0.00    -0.246 OA
ENDBRANCH   7   8
ENDBRANCH   6   7
ENDBRANCH   1   6
TORSDOF 5
REMARK  Name = ../refined-set-2016/1pvn/1pvn_pocket.pdb
REMARK  246 active torsions:
REMARK  status: ('A' for Active; 'I' for Inactive)
REMARK    1  A    between atoms: _1  and  _3
REMARK    2  A    between atoms: _3  and  _4
REMARK    3  A    between atoms: _3  and  _6
REMARK    4  A    between atoms: _9  and  _11
REMARK    5  A    between atoms: _11  and  _12
REMARK    6  A    between atoms: _11  and  _14
REMARK    7  A    between atoms: _14  and  _15
REMARK    8  A    between atoms: _17  and  _19
REMARK    9  A    between atoms: _19  and  _20
REMARK   10  A    between atoms: _23  and  _25
REMARK   11  A    between atoms: _25  and  _26
REMARK   12  A    between atoms: _25  and  _28
REMARK   13  A    between atoms: _28  and  _29
REMARK   14  A    between atoms: _32  and  _34
REMARK   15  A    between atoms: _34  and  _35
REMARK   16  A    between atoms: _34  and  _37
REMARK   17  A    between atoms: _37  and  _38
REMARK   18  A    between atoms: _38  and  _39
REMARK   19  A    between atoms: _41  and  _43
REMARK   20  A    between atoms: _43  and  _44
REMARK   21  A    between atoms: _43  and  _46
REMARK   22  A    between atoms: _46  and  _47
REMARK   23  A    between atoms: _47  and  _48
REMARK   24  A    between atoms: _53  and  _55
REMARK   25  A    between atoms: _55  and  _56
REMARK   26  A    between atoms: _55  and  _58
REMARK   27  A    between atoms: _58  and  _59
REMARK   28  A    between atoms: _61  and  _63
REMARK   29  A    between atoms: _63  and  _64
REMARK   30  A    between atoms: _63  and  _66
REMARK   31  A    between atoms: _69  and  _71
REMARK   32  A    between atoms: _71  and  _72
REMARK   33  A    between atoms: _71  and  _74
REMARK   34  A    between atoms: _74  and  _75
REMARK   35  A    between atoms: _78  and  _80
REMARK   36  A    between atoms: _80  and  _81
REMARK   37  A    between atoms: _80  and  _83
REMARK   38  A    between atoms: _83  and  _84
REMARK   39  A    between atoms: _86  and  _88
REMARK   40  A    between atoms: _88  and  _89
REMARK   41  A    between atoms: _88  and  _91
REMARK   42  A    between atoms: _91  and  _92
REMARK   43  A    between atoms: _94  and  _96
REMARK   44  A    between atoms: _96  and  _97
REMARK   45  A    between atoms: _99  and  _101
REMARK   46  A    between atoms: _101  and  _102
REMARK   47  A    between atoms: _101  and  _104
REMARK   48  A    between atoms: _104  and  _105
REMARK   49  A    between atoms: _110  and  _112
REMARK   50  A    between atoms: _112  and  _113
REMARK   51  A    between atoms: _112  and  _115
REMARK   52  A    between atoms: _115  and  _116
REMARK   53  A    between atoms: _116  and  _117
REMARK   54  A    between atoms: _117  and  _118
REMARK   55  A    between atoms: _118  and  _119
REMARK   56  A    between atoms: _123  and  _125
REMARK   57  A    between atoms: _125  and  _126
REMARK   58  A    between atoms: _125  and  _128
REMARK   59  A    between atoms: _128  and  _129
REMARK   60  A    between atoms: _132  and  _134
REMARK   61  A    between atoms: _134  and  _135
REMARK   62  A    between atoms: _137  and  _139
REMARK   63  A    between atoms: _139  and  _140
REMARK   64  A    between atoms: _139  and  _142
REMARK   65  A    between atoms: _142  and  _143
REMARK   66  A    between atoms: _146  and  _148
REMARK   67  A    between atoms: _148  and  _149
REMARK   68  A    between atoms: _151  and  _153
REMARK   69  A    between atoms: _153  and  _154
REMARK   70  A    between atoms: _156  and  _158
REMARK   71  A    between atoms: _158  and  _159
REMARK   72  A    between atoms: _161  and  _163
REMARK   73  A    between atoms: _163  and  _164
REMARK   74  A    between atoms: _163  and  _166
REMARK   75  A    between atoms: _166  and  _167
REMARK   76  A    between atoms: _169  and  _171
REMARK   77  A    between atoms: _171  and  _172
REMARK   78  A    between atoms: _171  and  _174
REMARK   79  A    between atoms: _174  and  _175
REMARK   80  A    between atoms: _178  and  _180
REMARK   81  A    between atoms: _180  and  _181
REMARK   82  A    between atoms: _180  and  _183
REMARK   83  A    between atoms: _185  and  _187
REMARK   84  A    between atoms: _187  and  _188
REMARK   85  A    between atoms: _187  and  _190
REMARK   86  A    between atoms: _190  and  _191
REMARK   87  A    between atoms: _194  and  _196
REMARK   88  A    between atoms: _196  and  _197
REMARK   89  A    between atoms: _196  and  _199
REMARK   90  A    between atoms: _199  and  _200
REMARK   91  A    between atoms: _203  and  _205
REMARK   92  A    between atoms: _205  and  _206
REMARK   93  A    between atoms: _205  and  _208
REMARK   94  A    between atoms: _208  and  _209
REMARK   95  A    between atoms: _209  and  _210
REMARK   96  A    between atoms: _210  and  _211
REMARK   97  A    between atoms: _220  and  _222
REMARK   98  A    between atoms: _222  and  _223
REMARK   99  A    between atoms: _222  and  _225
REMARK  100  A    between atoms: _225  and  _226
REMARK  101  A    between atoms: _226  and  _227
REMARK  102  A    between atoms: _232  and  _234
REMARK  103  A    between atoms: _234  and  _235
REMARK  104  A    between atoms: _234  and  _237
REMARK  105  A    between atoms: _239  and  _241
REMARK  106  A    between atoms: _241  and  _242
REMARK  107  A    between atoms: _241  and  _244
REMARK  108  A    between atoms: _244  and  _245
REMARK  109  A    between atoms: _247  and  _249
REMARK  110  A    between atoms: _249  and  _250
REMARK  111  A    between atoms: _249  and  _252
REMARK  112  A    between atoms: _252  and  _253
REMARK  113  A    between atoms: _256  and  _258
REMARK  114  A    between atoms: _258  and  _259
REMARK  115  A    between atoms: _261  and  _263
REMARK  116  A    between atoms: _263  and  _264
REMARK  117  A    between atoms: _266  and  _268
REMARK  118  A    between atoms: _268  and  _269
REMARK  119  A    between atoms: _268  and  _271
REMARK  120  A    between atoms: _271  and  _272
REMARK  121  A    between atoms: _275  and  _277
REMARK  122  A    between atoms: _277  and  _278
REMARK  123  A    between atoms: _277  and  _280
REMARK  124  A    between atoms: _283  and  _285
REMARK  125  A    between atoms: _285  and  _286
REMARK  126  A    between atoms: _285  and  _288
REMARK  127  A    between atoms: _288  and  _289
REMARK  128  A    between atoms: _292  and  _294
REMARK  129  A    between atoms: _294  and  _295
REMARK  130  A    between atoms: _294  and  _297
REMARK  131  A    between atoms: _297  and  _298
REMARK  132  A    between atoms: _298  and  _299
REMARK  133  A    between atoms: _301  and  _303
REMARK  134  A    between atoms: _303  and  _304
REMARK  135  A    between atoms: _303  and  _306
REMARK  136  A    between atoms: _306  and  _307
REMARK  137  A    between atoms: _310  and  _312
REMARK  138  A    between atoms: _312  and  _313
REMARK  139  A    between atoms: _315  and  _317
REMARK  140  A    between atoms: _317  and  _318
REMARK  141  A    between atoms: _317  and  _320
REMARK  142  A    between atoms: _320  and  _321
REMARK  143  A    between atoms: _321  and  _322
REMARK  144  A    between atoms: _322  and  _323
REMARK  145  A    between atoms: _332  and  _334
REMARK  146  A    between atoms: _334  and  _335
REMARK  147  A    between atoms: _334  and  _337
REMARK  148  A    between atoms: _337  and  _338
REMARK  149  A    between atoms: _343  and  _344
REMARK  150  A    between atoms: _346  and  _348
REMARK  151  A    between atoms: _348  and  _349
REMARK  152  A    between atoms: _348  and  _351
REMARK  153  A    between atoms: _351  and  _352
REMARK  154  A    between atoms: _358  and  _360
REMARK  155  A    between atoms: _360  and  _361
REMARK  156  A    between atoms: _364  and  _366
REMARK  157  A    between atoms: _366  and  _367
REMARK  158  A    between atoms: _366  and  _369
REMARK  159  A    between atoms: _369  and  _370
REMARK  160  A    between atoms: _375  and  _376
REMARK  161  A    between atoms: _378  and  _380
REMARK  162  A    between atoms: _380  and  _381
REMARK  163  A    between atoms: _380  and  _383
REMARK  164  A    between atoms: _383  and  _384
REMARK  165  A    between atoms: _394  and  _396
REMARK  166  A    between atoms: _396  and  _397
REMARK  167  A    between atoms: _399  and  _401
REMARK  168  A    between atoms: _401  and  _402
REMARK  169  A    between atoms: _401  and  _404
REMARK  170  A    between atoms: _404  and  _405
REMARK  171  A    between atoms: _405  and  _406
REMARK  172  A    between atoms: _409  and  _411
REMARK  173  A    between atoms: _411  and  _412
REMARK  174  A    between atoms: _414  and  _416
REMARK  175  A    between atoms: _416  and  _417
REMARK  176  A    between atoms: _416  and  _419
REMARK  177  A    between atoms: _419  and  _420
REMARK  178  A    between atoms: _422  and  _424
REMARK  179  A    between atoms: _424  and  _425
REMARK  180  A    between atoms: _424  and  _427
REMARK  181  A    between atoms: _427  and  _428
REMARK  182  A    between atoms: _430  and  _432
REMARK  183  A    between atoms: _432  and  _433
REMARK  184  A    between atoms: _436  and  _438
REMARK  185  A    between atoms: _438  and  _439
REMARK  186  A    between atoms: _438  and  _441
REMARK  187  A    between atoms: _441  and  _442
REMARK  188  A    between atoms: _442  and  _443
REMARK  189  A    between atoms: _443  and  _444
REMARK  190  A    between atoms: _453  and  _455
REMARK  191  A    between atoms: _455  and  _456
REMARK  192  A    between atoms: _455  and  _458
REMARK  193  A    between atoms: _458  and  _459
REMARK  194  A    between atoms: _464  and  _466
REMARK  195  A    between atoms: _466  and  _467
REMARK  196  A    between atoms: _466  and  _469
REMARK  197  A    between atoms: _469  and  _470
REMARK  198  A    between atoms: _470  and  _471
REMARK  199  A    between atoms: _471  and  _472
REMARK  200  A    between atoms: _481  and  _483
REMARK  201  A    between atoms: _483  and  _484
REMARK  202  A    between atoms: _483  and  _486
REMARK  203  A    between atoms: _486  and  _487
REMARK  204  A    between atoms: _492  and  _493
REMARK  205  A    between atoms: _495  and  _497
REMARK  206  A    between atoms: _497  and  _498
REMARK  207  A    between atoms: _497  and  _500
REMARK  208  A    between atoms: _500  and  _501
REMARK  209  A    between atoms: _504  and  _506
REMARK  210  A    between atoms: _506  and  _507
REMARK  211  A    between atoms: _506  and  _509
REMARK  212  A    between atoms: _509  and  _510
REMARK  213  A    between atoms: _510  and  _511
REMARK  214  A    between atoms: _514  and  _516
REMARK  215  A    between atoms: _516  and  _517
REMARK  216  A    between atoms: _516  and  _519
REMARK  217  A    between atoms: _519  and  _520
REMARK  218  A    between atoms: _520  and  _521
REMARK  219  A    between atoms: _524  and  _526
REMARK  220  A    between atoms: _526  and  _527
REMARK  221  A    between atoms: _529  and  _531
REMARK  222  A    between atoms: _531  and  _532
REMARK  223  A    between atoms: _531  and  _534
REMARK  224  A    between atoms: _537  and  _539
REMARK  225  A    between atoms: _539  and  _540
REMARK  226  A    between atoms: _539  and  _542
REMARK  227  A    between atoms: _542  and  _543
REMARK  228  A    between atoms: _546  and  _548
REMARK  229  A    between atoms: _548  and  _549
REMARK  230  A    between atoms: _548  and  _551
REMARK  231  A    between atoms: _554  and  _556
REMARK  232  A    between atoms: _556  and  _557
REMARK  233  A    between atoms: _556  and  _559
REMARK  234  A    between atoms: _559  and  _560
REMARK  235  A    between atoms: _560  and  _561
REMARK  236  A    between atoms: _564  and  _566
REMARK  237  A    between atoms: _566  and  _567
REMARK  238  A    between atoms: _566  and  _569
REMARK  239  A    between atoms: _569  and  _570
REMARK  240  A    between atoms: _575  and  _577
REMARK  241  A    between atoms: _577  and  _578
REMARK  242  A    between atoms: _577  and  _580
REMARK  243  A    between atoms: _580  and  _581
REMARK  244  A    between atoms: _584  and  _586
REMARK  245  A    between atoms: _586  and  _587
REMARK  246  A    between atoms: _586  and  _589
REMARK                            x       y       z     vdW  Elec       q    Type
REMARK                         _______ _______ _______ _____ _____    ______ ____
ROOT
ATOM      1  CA  ASP A   2     -14.601  29.121  46.863  0.00  0.00    +0.160 C 
ENDROOT
BRANCH   1   4
ATOM      2  C   HIS A   1     -15.406  30.546  45.050  0.00  0.00    +0.239 C 
ATOM      3  O   HIS A   1     -16.472  30.778  45.605  0.00  0.00    -0.274 OA
ATOM      4  N   ASP A   2     -14.472  29.741  45.549  0.00  0.00    -0.297 N 
ATOM      5  H   ASP A   2     -13.621  29.547  44.983  0.00  0.00    +0.150 HD
BRANCH   2   6
ATOM      6  CA  HIS A   1     -15.092  31.144  43.699  0.00  0.00    +0.151 C 
BRANCH   6   7
ATOM      7  N   HIS A   1     -16.288  31.323  42.889  0.00  0.00    -0.238 NA
ATOM      8  H   HIS A   1     -17.210  31.475  43.345  0.00  0.00    +0.142 HD
ENDBRANCH   6   7
BRANCH   6   9
ATOM      9  CB  HIS A   1     -14.354  32.491  43.865  0.00  0.00    +0.074 C 
BRANCH   9  10
ATOM     10  CG  HIS A   1     -15.170  33.565  44.524  0.00  0.00    +0.082 A 
ATOM     11  ND1 HIS A   1     -15.354  33.637  45.889  0.00  0.00    -0.227 NA
ATOM     12  CE1 HIS A   1     -16.103  34.687  46.177  0.00  0.00    +0.199 A 
ATOM     13  NE2 HIS A   1     -16.414  35.297  45.048  0.00  0.00    -0.221 NA
ATOM     14  CD2 HIS A   1     -15.845  34.616  44.000  0.00  0.00    +0.115 A 
ENDBRANCH   9  10
ENDBRANCH   6   9
ENDBRANCH   2   6
ENDBRANCH   1   4
BRANCH   1  15
ATOM     15  C   ASP A   2     -15.781  28.177  47.004  0.00  0.00    +0.241 C 
ATOM     16  O   ASP A   2     -16.325  27.974  48.089  0.00  0.00    -0.273 OA
ATOM     17  N   VAL A   3     -16.168  27.598  45.878  0.00  0.00    -0.298 N 
ATOM     18  H   VAL A   3     -15.678  27.840  44.993  0.00  0.00    +0.150 HD
BRANCH  17  19
ATOM     19  CA  VAL A   3     -17.256  26.635  45.839  0.00  0.00    +0.137 C 
BRANCH  19  20
ATOM     20  CB  VAL A   3     -18.612  27.286  45.449  0.00  0.00    +0.026 C 
ATOM     21  CG2 VAL A   3     -18.955  28.409  46.410  0.00  0.00    +0.002 C 
ATOM     22  CG1 VAL A   3     -18.559  27.796  44.018  0.00  0.00    +0.002 C 
ENDBRANCH  19  20
BRANCH  19  23
ATOM     23  C   VAL A   3     -16.903  25.593  44.784  0.00  0.00    +0.227 C 
ATOM     24  O   VAL A   3     -16.128  25.860  43.861  0.00  0.00    -0.286 OA
ENDBRANCH  19  23
ENDBRANCH  17  19
ENDBRANCH   1  15
BRANCH   1  25
ATOM     25  CB  ASP A   2     -14.629  30.228  47.898  0.00  0.00    +0.143 C 
BRANCH  25  26
ATOM     26  CG  ASP A   2     -13.416  31.120  47.779  0.00  0.00    +0.367 C 
ATOM     27  OD2 ASP A   2     -12.305  30.635  48.092  0.00  0.00    -0.246 OA
ATOM     28  OD1 ASP A   2     -13.559  32.286  47.343  0.00  0.00    -0.246 OA
ENDBRANCH  25  26
ENDBRANCH   1  25
TORSDOF 11
REMARK  Name = ../refined-set-2016/1pvn/1pvn_pocket.pdb
REMARK  246 active torsions:
REMARK  status: ('A' for Active; 'I' for Inactive)
REMARK    1  A    between atoms: _1  and  _3
REMARK    2  A    between atoms: _3  and  _4
REMARK    3  A    between atoms: _3  and  _6
REMARK    4  A    between atoms: _9  and  _11
REMARK    5  A    between atoms: _11  and  _12
REMARK    6  A    between atoms: _11  and  _14
REMARK    7  A    between atoms: _14  and  _15
REMARK    8  A    between atoms: _17  and  _19
REMARK    9  A    between atoms: _19  and  _20
REMARK   10  A    between atoms: _23  and  _25
REMARK   11  A    between atoms: _25  and  _26
REMARK   12  A    between atoms: _25  and  _28
REMARK   13  A    between atoms: _28  and  _29
REMARK   14  A    between atoms: _32  and  _34
REMARK   15  A    between atoms: _34  and  _35
REMARK   16  A    between atoms: _34  and  _37
REMARK   17  A    between atoms: _37  and  _38
REMARK   18  A    between atoms: _38  and  _39
REMARK   19  A    between atoms: _41  and  _43
REMARK   20  A    between atoms: _43  and  _44
REMARK   21  A    between atoms: _43  and  _46
REMARK   22  A    between atoms: _46  and  _47
REMARK   23  A    between atoms: _47  and  _48
REMARK   24  A    between atoms: _53  and  _55
REMARK   25  A    between atoms: _55  and  _56
REMARK   26  A    between atoms: _55  and  _58
REMARK   27  A    between atoms: _58  and  _59
REMARK   28  A    between atoms: _61  and  _63
REMARK   29  A    between atoms: _63  and  _64
REMARK   30  A    between atoms: _63  and  _66
REMARK   31  A    between atoms: _69  and  _71
REMARK   32  A    between atoms: _71  and  _72
REMARK   33  A    between atoms: _71  and  _74
REMARK   34  A    between atoms: _74  and  _75
REMARK   35  A    between atoms: _78  and  _80
REMARK   36  A    between atoms: _80  and  _81
REMARK   37  A    between atoms: _80  and  _83
REMARK   38  A    between atoms: _83  and  _84
REMARK   39  A    between atoms: _86  and  _88
REMARK   40  A    between atoms: _88  and  _89
REMARK   41  A    between atoms: _88  and  _91
REMARK   42  A    between atoms: _91  and  _92
REMARK   43  A    between atoms: _94  and  _96
REMARK   44  A    between atoms: _96  and  _97
REMARK   45  A    between atoms: _99  and  _101
REMARK   46  A    between atoms: _101  and  _102
REMARK   47  A    between atoms: _101  and  _104
REMARK   48  A    between atoms: _104  and  _105
REMARK   49  A    between atoms: _110  and  _112
REMARK   50  A    between atoms: _112  and  _113
REMARK   51  A    between atoms: _112  and  _115
REMARK   52  A    between atoms: _115  and  _116
REMARK   53  A    between atoms: _116  and  _117
REMARK   54  A    between atoms: _117  and  _118
REMARK   55  A    between atoms: _118  and  _119
REMARK   56  A    between atoms: _123  and  _125
REMARK   57  A    between atoms: _125  and  _126
REMARK   58  A    between atoms: _125  and  _128
REMARK   59  A    between atoms: _128  and  _129
REMARK   60  A    between atoms: _132  and  _134
REMARK   61  A    between atoms: _134  and  _135
REMARK   62  A    between atoms: _137  and  _139
REMARK   63  A    between atoms: _139  and  _140
REMARK   64  A    between atoms: _139  and  _142
REMARK   65  A    between atoms: _142  and  _143
REMARK   66  A    between atoms: _146  and  _148
REMARK   67  A    between atoms: _148  and  _149
REMARK   68  A    between atoms: _151  and  _153
REMARK   69  A    between atoms: _153  and  _154
REMARK   70  A    between atoms: _156  and  _158
REMARK   71  A    between atoms: _158  and  _159
REMARK   72  A    between atoms: _161  and  _163
REMARK   73  A    between atoms: _163  and  _164
REMARK   74  A    between atoms: _163  and  _166
REMARK   75  A    between atoms: _166  and  _167
REMARK   76  A    between atoms: _169  and  _171
REMARK   77  A    between atoms: _171  and  _172
REMARK   78  A    between atoms: _171  and  _174
REMARK   79  A    between atoms: _174  and  _175
REMARK   80  A    between atoms: _178  and  _180
REMARK   81  A    between atoms: _180  and  _181
REMARK   82  A    between atoms: _180  and  _183
REMARK   83  A    between atoms: _185  and  _187
REMARK   84  A    between atoms: _187  and  _188
REMARK   85  A    between atoms: _187  and  _190
REMARK   86  A    between atoms: _190  and  _191
REMARK   87  A    between atoms: _194  and  _196
REMARK   88  A    between atoms: _196  and  _197
REMARK   89  A    between atoms: _196  and  _199
REMARK   90  A    between atoms: _199  and  _200
REMARK   91  A    between atoms: _203  and  _205
REMARK   92  A    between atoms: _205  and  _206
REMARK   93  A    between atoms: _205  and  _208
REMARK   94  A    between atoms: _208  and  _209
REMARK   95  A    between atoms: _209  and  _210
REMARK   96  A    between atoms: _210  and  _211
REMARK   97  A    between atoms: _220  and  _222
REMARK   98  A    between atoms: _222  and  _223
REMARK   99  A    between atoms: _222  and  _225
REMARK  100  A    between atoms: _225  and  _226
REMARK  101  A    between atoms: _226  and  _227
REMARK  102  A    between atoms: _232  and  _234
REMARK  103  A    between atoms: _234  and  _235
REMARK  104  A    between atoms: _234  and  _237
REMARK  105  A    between atoms: _239  and  _241
REMARK  106  A    between atoms: _241  and  _242
REMARK  107  A    between atoms: _241  and  _244
REMARK  108  A    between atoms: _244  and  _245
REMARK  109  A    between atoms: _247  and  _249
REMARK  110  A    between atoms: _249  and  _250
REMARK  111  A    between atoms: _249  and  _252
REMARK  112  A    between atoms: _252  and  _253
REMARK  113  A    between atoms: _256  and  _258
REMARK  114  A    between atoms: _258  and  _259
REMARK  115  A    between atoms: _261  and  _263
REMARK  116  A    between atoms: _263  and  _264
REMARK  117  A    between atoms: _266  and  _268
REMARK  118  A    between atoms: _268  and  _269
REMARK  119  A    between atoms: _268  and  _271
REMARK  120  A    between atoms: _271  and  _272
REMARK  121  A    between atoms: _275  and  _277
REMARK  122  A    between atoms: _277  and  _278
REMARK  123  A    between atoms: _277  and  _280
REMARK  124  A    between atoms: _283  and  _285
REMARK  125  A    between atoms: _285  and  _286
REMARK  126  A    between atoms: _285  and  _288
REMARK  127  A    between atoms: _288  and  _289
REMARK  128  A    between atoms: _292  and  _294
REMARK  129  A    between atoms: _294  and  _295
REMARK  130  A    between atoms: _294  and  _297
REMARK  131  A    between atoms: _297  and  _298
REMARK  132  A    between atoms: _298  and  _299
REMARK  133  A    between atoms: _301  and  _303
REMARK  134  A    between atoms: _303  and  _304
REMARK  135  A    between atoms: _303  and  _306
REMARK  136  A    between atoms: _306  and  _307
REMARK  137  A    between atoms: _310  and  _312
REMARK  138  A    between atoms: _312  and  _313
REMARK  139  A    between atoms: _315  and  _317
REMARK  140  A    between atoms: _317  and  _318
REMARK  141  A    between atoms: _317  and  _320
REMARK  142  A    between atoms: _320  and  _321
REMARK  143  A    between atoms: _321  and  _322
REMARK  144  A    between atoms: _322  and  _323
REMARK  145  A    between atoms: _332  and  _334
REMARK  146  A    between atoms: _334  and  _335
REMARK  147  A    between atoms: _334  and  _337
REMARK  148  A    between atoms: _337  and  _338
REMARK  149  A    between atoms: _343  and  _344
REMARK  150  A    between atoms: _346  and  _348
REMARK  151  A    between atoms: _348  and  _349
REMARK  152  A    between atoms: _348  and  _351
REMARK  153  A    between atoms: _351  and  _352
REMARK  154  A    between atoms: _358  and  _360
REMARK  155  A    between atoms: _360  and  _361
REMARK  156  A    between atoms: _364  and  _366
REMARK  157  A    between atoms: _366  and  _367
REMARK  158  A    between atoms: _366  and  _369
REMARK  159  A    between atoms: _369  and  _370
REMARK  160  A    between atoms: _375  and  _376
REMARK  161  A    between atoms: _378  and  _380
REMARK  162  A    between atoms: _380  and  _381
REMARK  163  A    between atoms: _380  and  _383
REMARK  164  A    between atoms: _383  and  _384
REMARK  165  A    between atoms: _394  and  _396
REMARK  166  A    between atoms: _396  and  _397
REMARK  167  A    between atoms: _399  and  _401
REMARK  168  A    between atoms: _401  and  _402
REMARK  169  A    between atoms: _401  and  _404
REMARK  170  A    between atoms: _404  and  _405
REMARK  171  A    between atoms: _405  and  _406
REMARK  172  A    between atoms: _409  and  _411
REMARK  173  A    between atoms: _411  and  _412
REMARK  174  A    between atoms: _414  and  _416
REMARK  175  A    between atoms: _416  and  _417
REMARK  176  A    between atoms: _416  and  _419
REMARK  177  A    between atoms: _419  and  _420
REMARK  178  A    between atoms: _422  and  _424
REMARK  179  A    between atoms: _424  and  _425
REMARK  180  A    between atoms: _424  and  _427
REMARK  181  A    between atoms: _427  and  _428
REMARK  182  A    between atoms: _430  and  _432
REMARK  183  A    between atoms: _432  and  _433
REMARK  184  A    between atoms: _436  and  _438
REMARK  185  A    between atoms: _438  and  _439
REMARK  186  A    between atoms: _438  and  _441
REMARK  187  A    between atoms: _441  and  _442
REMARK  188  A    between atoms: _442  and  _443
REMARK  189  A    between atoms: _443  and  _444
REMARK  190  A    between atoms: _453  and  _455
REMARK  191  A    between atoms: _455  and  _456
REMARK  192  A    between atoms: _455  and  _458
REMARK  193  A    between atoms: _458  and  _459
REMARK  194  A    between atoms: _464  and  _466
REMARK  195  A    between atoms: _466  and  _467
REMARK  196  A    between atoms: _466  and  _469
REMARK  197  A    between atoms: _469  and  _470
REMARK  198  A    between atoms: _470  and  _471
REMARK  199  A    between atoms: _471  and  _472
REMARK  200  A    between atoms: _481  and  _483
REMARK  201  A    between atoms: _483  and  _484
REMARK  202  A    between atoms: _483  and  _486
REMARK  203  A    between atoms: _486  and  _487
REMARK  204  A    between atoms: _492  and  _493
REMARK  205  A    between atoms: _495  and  _497
REMARK  206  A    between atoms: _497  and  _498
REMARK  207  A    between atoms: _497  and  _500
REMARK  208  A    between atoms: _500  and  _501
REMARK  209  A    between atoms: _504  and  _506
REMARK  210  A    between atoms: _506  and  _507
REMARK  211  A    between atoms: _506  and  _509
REMARK  212  A    between atoms: _509  and  _510
REMARK  213  A    between atoms: _510  and  _511
REMARK  214  A    between atoms: _514  and  _516
REMARK  215  A    between atoms: _516  and  _517
REMARK  216  A    between atoms: _516  and  _519
REMARK  217  A    between atoms: _519  and  _520
REMARK  218  A    between atoms: _520  and  _521
REMARK  219  A    between atoms: _524  and  _526
REMARK  220  A    between atoms: _526  and  _527
REMARK  221  A    between atoms: _529  and  _531
REMARK  222  A    between atoms: _531  and  _532
REMARK  223  A    between atoms: _531  and  _534
REMARK  224  A    between atoms: _537  and  _539
REMARK  225  A    between atoms: _539  and  _540
REMARK  226  A    between atoms: _539  and  _542
REMARK  227  A    between atoms: _542  and  _543
REMARK  228  A    between atoms: _546  and  _548
REMARK  229  A    between atoms: _548  and  _549
REMARK  230  A    between atoms: _548  and  _551
REMARK  231  A    between atoms: _554  and  _556
REMARK  232  A    between atoms: _556  and  _557
REMARK  233  A    between atoms: _556  and  _559
REMARK  234  A    between atoms: _559  and  _560
REMARK  235  A    between atoms: _560  and  _561
REMARK  236  A    between atoms: _564  and  _566
REMARK  237  A    between atoms: _566  and  _567
REMARK  238  A    between atoms: _566  and  _569
REMARK  239  A    between atoms: _569  and  _570
REMARK  240  A    between atoms: _575  and  _577
REMARK  241  A    between atoms: _577  and  _578
REMARK  242  A    between atoms: _577  and  _580
REMARK  243  A    between atoms: _580  and  _581
REMARK  244  A    between atoms: _584  and  _586
REMARK  245  A    between atoms: _586  and  _587
REMARK  246  A    between atoms: _586  and  _589
REMARK                            x       y       z     vdW  Elec       q    Type
REMARK                         _______ _______ _______ _____ _____    ______ ____
ROOT
ATOM      1  O   HOH     1     -20.302  37.481  50.987  0.00  0.00    +0.000 OA
ENDROOT
TORSDOF 0
REMARK  Name = ../refined-set-2016/1pvn/1pvn_pocket.pdb
REMARK  246 active torsions:
REMARK  status: ('A' for Active; 'I' for Inactive)
REMARK    1  A    between atoms: _1  and  _3
REMARK    2  A    between atoms: _3  and  _4
REMARK    3  A    between atoms: _3  and  _6
REMARK    4  A    between atoms: _9  and  _11
REMARK    5  A    between atoms: _11  and  _12
REMARK    6  A    between atoms: _11  and  _14
REMARK    7  A    between atoms: _14  and  _15
REMARK    8  A    between atoms: _17  and  _19
REMARK    9  A    between atoms: _19  and  _20
REMARK   10  A    between atoms: _23  and  _25
REMARK   11  A    between atoms: _25  and  _26
REMARK   12  A    between atoms: _25  and  _28
REMARK   13  A    between atoms: _28  and  _29
REMARK   14  A    between atoms: _32  and  _34
REMARK   15  A    between atoms: _34  and  _35
REMARK   16  A    between atoms: _34  and  _37
REMARK   17  A    between atoms: _37  and  _38
REMARK   18  A    between atoms: _38  and  _39
REMARK   19  A    between atoms: _41  and  _43
REMARK   20  A    between atoms: _43  and  _44
REMARK   21  A    between atoms: _43  and  _46
REMARK   22  A    between atoms: _46  and  _47
REMARK   23  A    between atoms: _47  and  _48
REMARK   24  A    between atoms: _53  and  _55
REMARK   25  A    between atoms: _55  and  _56
REMARK   26  A    between atoms: _55  and  _58
REMARK   27  A    between atoms: _58  and  _59
REMARK   28  A    between atoms: _61  and  _63
REMARK   29  A    between atoms: _63  and  _64
REMARK   30  A    between atoms: _63  and  _66
REMARK   31  A    between atoms: _69  and  _71
REMARK   32  A    between atoms: _71  and  _72
REMARK   33  A    between atoms: _71  and  _74
REMARK   34  A    between atoms: _74  and  _75
REMARK   35  A    between atoms: _78  and  _80
REMARK   36  A    between atoms: _80  and  _81
REMARK   37  A    between atoms: _80  and  _83
REMARK   38  A    between atoms: _83  and  _84
REMARK   39  A    between atoms: _86  and  _88
REMARK   40  A    between atoms: _88  and  _89
REMARK   41  A    between atoms: _88  and  _91
REMARK   42  A    between atoms: _91  and  _92
REMARK   43  A    between atoms: _94  and  _96
REMARK   44  A    between atoms: _96  and  _97
REMARK   45  A    between atoms: _99  and  _101
REMARK   46  A    between atoms: _101  and  _102
REMARK   47  A    between atoms: _101  and  _104
REMARK   48  A    between atoms: _104  and  _105
REMARK   49  A    between atoms: _110  and  _112
REMARK   50  A    between atoms: _112  and  _113
REMARK   51  A    between atoms: _112  and  _115
REMARK   52  A    between atoms: _115  and  _116
REMARK   53  A    between atoms: _116  and  _117
REMARK   54  A    between atoms: _117  and  _118
REMARK   55  A    between atoms: _118  and  _119
REMARK   56  A    between atoms: _123  and  _125
REMARK   57  A    between atoms: _125  and  _126
REMARK   58  A    between atoms: _125  and  _128
REMARK   59  A    between atoms: _128  and  _129
REMARK   60  A    between atoms: _132  and  _134
REMARK   61  A    between atoms: _134  and  _135
REMARK   62  A    between atoms: _137  and  _139
REMARK   63  A    between atoms: _139  and  _140
REMARK   64  A    between atoms: _139  and  _142
REMARK   65  A    between atoms: _142  and  _143
REMARK   66  A    between atoms: _146  and  _148
REMARK   67  A    between atoms: _148  and  _149
REMARK   68  A    between atoms: _151  and  _153
REMARK   69  A    between atoms: _153  and  _154
REMARK   70  A    between atoms: _156  and  _158
REMARK   71  A    between atoms: _158  and  _159
REMARK   72  A    between atoms: _161  and  _163
REMARK   73  A    between atoms: _163  and  _164
REMARK   74  A    between atoms: _163  and  _166
REMARK   75  A    between atoms: _166  and  _167
REMARK   76  A    between atoms: _169  and  _171
REMARK   77  A    between atoms: _171  and  _172
REMARK   78  A    between atoms: _171  and  _174
REMARK   79  A    between atoms: _174  and  _175
REMARK   80  A    between atoms: _178  and  _180
REMARK   81  A    between atoms: _180  and  _181
REMARK   82  A    between atoms: _180  and  _183
REMARK   83  A    between atoms: _185  and  _187
REMARK   84  A    between atoms: _187  and  _188
REMARK   85  A    between atoms: _187  and  _190
REMARK   86  A    between atoms: _190  and  _191
REMARK   87  A    between atoms: _194  and  _196
REMARK   88  A    between atoms: _196  and  _197
REMARK   89  A    between atoms: _196  and  _199
REMARK   90  A    between atoms: _199  and  _200
REMARK   91  A    between atoms: _203  and  _205
REMARK   92  A    between atoms: _205  and  _206
REMARK   93  A    between atoms: _205  and  _208
REMARK   94  A    between atoms: _208  and  _209
REMARK   95  A    between atoms: _209  and  _210
REMARK   96  A    between atoms: _210  and  _211
REMARK   97  A    between atoms: _220  and  _222
REMARK   98  A    between atoms: _222  and  _223
REMARK   99  A    between atoms: _222  and  _225
REMARK  100  A    between atoms: _225  and  _226
REMARK  101  A    between atoms: _226  and  _227
REMARK  102  A    between atoms: _232  and  _234
REMARK  103  A    between atoms: _234  and  _235
REMARK  104  A    between atoms: _234  and  _237
REMARK  105  A    between atoms: _239  and  _241
REMARK  106  A    between atoms: _241  and  _242
REMARK  107  A    between atoms: _241  and  _244
REMARK  108  A    between atoms: _244  and  _245
REMARK  109  A    between atoms: _247  and  _249
REMARK  110  A    between atoms: _249  and  _250
REMARK  111  A    between atoms: _249  and  _252
REMARK  112  A    between atoms: _252  and  _253
REMARK  113  A    between atoms: _256  and  _258
REMARK  114  A    between atoms: _258  and  _259
REMARK  115  A    between atoms: _261  and  _263
REMARK  116  A    between atoms: _263  and  _264
REMARK  117  A    between atoms: _266  and  _268
REMARK  118  A    between atoms: _268  and  _269
REMARK  119  A    between atoms: _268  and  _271
REMARK  120  A    between atoms: _271  and  _272
REMARK  121  A    between atoms: _275  and  _277
REMARK  122  A    between atoms: _277  and  _278
REMARK  123  A    between atoms: _277  and  _280
REMARK  124  A    between atoms: _283  and  _285
REMARK  125  A    between atoms: _285  and  _286
REMARK  126  A    between atoms: _285  and  _288
REMARK  127  A    between atoms: _288  and  _289
REMARK  128  A    between atoms: _292  and  _294
REMARK  129  A    between atoms: _294  and  _295
REMARK  130  A    between atoms: _294  and  _297
REMARK  131  A    between atoms: _297  and  _298
REMARK  132  A    between atoms: _298  and  _299
REMARK  133  A    between atoms: _301  and  _303
REMARK  134  A    between atoms: _303  and  _304
REMARK  135  A    between atoms: _303  and  _306
REMARK  136  A    between atoms: _306  and  _307
REMARK  137  A    between atoms: _310  and  _312
REMARK  138  A    between atoms: _312  and  _313
REMARK  139  A    between atoms: _315  and  _317
REMARK  140  A    between atoms: _317  and  _318
REMARK  141  A    between atoms: _317  and  _320
REMARK  142  A    between atoms: _320  and  _321
REMARK  143  A    between atoms: _321  and  _322
REMARK  144  A    between atoms: _322  and  _323
REMARK  145  A    between atoms: _332  and  _334
REMARK  146  A    between atoms: _334  and  _335
REMARK  147  A    between atoms: _334  and  _337
REMARK  148  A    between atoms: _337  and  _338
REMARK  149  A    between atoms: _343  and  _344
REMARK  150  A    between atoms: _346  and  _348
REMARK  151  A    between atoms: _348  and  _349
REMARK  152  A    between atoms: _348  and  _351
REMARK  153  A    between atoms: _351  and  _352
REMARK  154  A    between atoms: _358  and  _360
REMARK  155  A    between atoms: _360  and  _361
REMARK  156  A    between atoms: _364  and  _366
REMARK  157  A    between atoms: _366  and  _367
REMARK  158  A    between atoms: _366  and  _369
REMARK  159  A    between atoms: _369  and  _370
REMARK  160  A    between atoms: _375  and  _376
REMARK  161  A    between atoms: _378  and  _380
REMARK  162  A    between atoms: _380  and  _381
REMARK  163  A    between atoms: _380  and  _383
REMARK  164  A    between atoms: _383  and  _384
REMARK  165  A    between atoms: _394  and  _396
REMARK  166  A    between atoms: _396  and  _397
REMARK  167  A    between atoms: _399  and  _401
REMARK  168  A    between atoms: _401  and  _402
REMARK  169  A    between atoms: _401  and  _404
REMARK  170  A    between atoms: _404  and  _405
REMARK  171  A    between atoms: _405  and  _406
REMARK  172  A    between atoms: _409  and  _411
REMARK  173  A    between atoms: _411  and  _412
REMARK  174  A    between atoms: _414  and  _416
REMARK  175  A    between atoms: _416  and  _417
REMARK  176  A    between atoms: _416  and  _419
REMARK  177  A    between atoms: _419  and  _420
REMARK  178  A    between atoms: _422  and  _424
REMARK  179  A    between atoms: _424  and  _425
REMARK  180  A    between atoms: _424  and  _427
REMARK  181  A    between atoms: _427  and  _428
REMARK  182  A    between atoms: _430  and  _432
REMARK  183  A    between atoms: _432  and  _433
REMARK  184  A    between atoms: _436  and  _438
REMARK  185  A    between atoms: _438  and  _439
REMARK  186  A    between atoms: _438  and  _441
REMARK  187  A    between atoms: _441  and  _442
REMARK  188  A    between atoms: _442  and  _443
REMARK  189  A    between atoms: _443  and  _444
REMARK  190  A    between atoms: _453  and  _455
REMARK  191  A    between atoms: _455  and  _456
REMARK  192  A    between atoms: _455  and  _458
REMARK  193  A    between atoms: _458  and  _459
REMARK  194  A    between atoms: _464  and  _466
REMARK  195  A    between atoms: _466  and  _467
REMARK  196  A    between atoms: _466  and  _469
REMARK  197  A    between atoms: _469  and  _470
REMARK  198  A    between atoms: _470  and  _471
REMARK  199  A    between atoms: _471  and  _472
REMARK  200  A    between atoms: _481  and  _483
REMARK  201  A    between atoms: _483  and  _484
REMARK  202  A    between atoms: _483  and  _486
REMARK  203  A    between atoms: _486  and  _487
REMARK  204  A    between atoms: _492  and  _493
REMARK  205  A    between atoms: _495  and  _497
REMARK  206  A    between atoms: _497  and  _498
REMARK  207  A    between atoms: _497  and  _500
REMARK  208  A    between atoms: _500  and  _501
REMARK  209  A    between atoms: _504  and  _506
REMARK  210  A    between atoms: _506  and  _507
REMARK  211  A    between atoms: _506  and  _509
REMARK  212  A    between atoms: _509  and  _510
REMARK  213  A    between atoms: _510  and  _511
REMARK  214  A    between atoms: _514  and  _516
REMARK  215  A    between atoms: _516  and  _517
REMARK  216  A    between atoms: _516  and  _519
REMARK  217  A    between atoms: _519  and  _520
REMARK  218  A    between atoms: _520  and  _521
REMARK  219  A    between atoms: _524  and  _526
REMARK  220  A    between atoms: _526  and  _527
REMARK  221  A    between atoms: _529  and  _531
REMARK  222  A    between atoms: _531  and  _532
REMARK  223  A    between atoms: _531  and  _534
REMARK  224  A    between atoms: _537  and  _539
REMARK  225  A    between atoms: _539  and  _540
REMARK  226  A    between atoms: _539  and  _542
REMARK  227  A    between atoms: _542  and  _543
REMARK  228  A    between atoms: _546  and  _548
REMARK  229  A    between atoms: _548  and  _549
REMARK  230  A    between atoms: _548  and  _551
REMARK  231  A    between atoms: _554  and  _556
REMARK  232  A    between atoms: _556  and  _557
REMARK  233  A    between atoms: _556  and  _559
REMARK  234  A    between atoms: _559  and  _560
REMARK  235  A    between atoms: _560  and  _561
REMARK  236  A    between atoms: _564  and  _566
REMARK  237  A    between atoms: _566  and  _567
REMARK  238  A    between atoms: _566  and  _569
REMARK  239  A    between atoms: _569  and  _570
REMARK  240  A    between atoms: _575  and  _577
REMARK  241  A    between atoms: _577  and  _578
REMARK  242  A    between atoms: _577  and  _580
REMARK  243  A    between atoms: _580  and  _581
REMARK  244  A    between atoms: _584  and  _586
REMARK  245  A    between atoms: _586  and  _587
REMARK  246  A    between atoms: _586  and  _589
REMARK                            x       y       z     vdW  Elec       q    Type
REMARK                         _______ _______ _______ _____ _____    ______ ____
ROOT
ATOM      1  O   HOH     1     -22.988  38.586  43.208  0.00  0.00    +0.000 OA
ENDROOT
TORSDOF 0
REMARK  Name = ../refined-set-2016/1pvn/1pvn_pocket.pdb
REMARK  246 active torsions:
REMARK  status: ('A' for Active; 'I' for Inactive)
REMARK    1  A    between atoms: _1  and  _3
REMARK    2  A    between atoms: _3  and  _4
REMARK    3  A    between atoms: _3  and  _6
REMARK    4  A    between atoms: _9  and  _11
REMARK    5  A    between atoms: _11  and  _12
REMARK    6  A    between atoms: _11  and  _14
REMARK    7  A    between atoms: _14  and  _15
REMARK    8  A    between atoms: _17  and  _19
REMARK    9  A    between atoms: _19  and  _20
REMARK   10  A    between atoms: _23  and  _25
REMARK   11  A    between atoms: _25  and  _26
REMARK   12  A    between atoms: _25  and  _28
REMARK   13  A    between atoms: _28  and  _29
REMARK   14  A    between atoms: _32  and  _34
REMARK   15  A    between atoms: _34  and  _35
REMARK   16  A    between atoms: _34  and  _37
REMARK   17  A    between atoms: _37  and  _38
REMARK   18  A    between atoms: _38  and  _39
REMARK   19  A    between atoms: _41  and  _43
REMARK   20  A    between atoms: _43  and  _44
REMARK   21  A    between atoms: _43  and  _46
REMARK   22  A    between atoms: _46  and  _47
REMARK   23  A    between atoms: _47  and  _48
REMARK   24  A    between atoms: _53  and  _55
REMARK   25  A    between atoms: _55  and  _56
REMARK   26  A    between atoms: _55  and  _58
REMARK   27  A    between atoms: _58  and  _59
REMARK   28  A    between atoms: _61  and  _63
REMARK   29  A    between atoms: _63  and  _64
REMARK   30  A    between atoms: _63  and  _66
REMARK   31  A    between atoms: _69  and  _71
REMARK   32  A    between atoms: _71  and  _72
REMARK   33  A    between atoms: _71  and  _74
REMARK   34  A    between atoms: _74  and  _75
REMARK   35  A    between atoms: _78  and  _80
REMARK   36  A    between atoms: _80  and  _81
REMARK   37  A    between atoms: _80  and  _83
REMARK   38  A    between atoms: _83  and  _84
REMARK   39  A    between atoms: _86  and  _88
REMARK   40  A    between atoms: _88  and  _89
REMARK   41  A    between atoms: _88  and  _91
REMARK   42  A    between atoms: _91  and  _92
REMARK   43  A    between atoms: _94  and  _96
REMARK   44  A    between atoms: _96  and  _97
REMARK   45  A    between atoms: _99  and  _101
REMARK   46  A    between atoms: _101  and  _102
REMARK   47  A    between atoms: _101  and  _104
REMARK   48  A    between atoms: _104  and  _105
REMARK   49  A    between atoms: _110  and  _112
REMARK   50  A    between atoms: _112  and  _113
REMARK   51  A    between atoms: _112  and  _115
REMARK   52  A    between atoms: _115  and  _116
REMARK   53  A    between atoms: _116  and  _117
REMARK   54  A    between atoms: _117  and  _118
REMARK   55  A    between atoms: _118  and  _119
REMARK   56  A    between atoms: _123  and  _125
REMARK   57  A    between atoms: _125  and  _126
REMARK   58  A    between atoms: _125  and  _128
REMARK   59  A    between atoms: _128  and  _129
REMARK   60  A    between atoms: _132  and  _134
REMARK   61  A    between atoms: _134  and  _135
REMARK   62  A    between atoms: _137  and  _139
REMARK   63  A    between atoms: _139  and  _140
REMARK   64  A    between atoms: _139  and  _142
REMARK   65  A    between atoms: _142  and  _143
REMARK   66  A    between atoms: _146  and  _148
REMARK   67  A    between atoms: _148  and  _149
REMARK   68  A    between atoms: _151  and  _153
REMARK   69  A    between atoms: _153  and  _154
REMARK   70  A    between atoms: _156  and  _158
REMARK   71  A    between atoms: _158  and  _159
REMARK   72  A    between atoms: _161  and  _163
REMARK   73  A    between atoms: _163  and  _164
REMARK   74  A    between atoms: _163  and  _166
REMARK   75  A    between atoms: _166  and  _167
REMARK   76  A    between atoms: _169  and  _171
REMARK   77  A    between atoms: _171  and  _172
REMARK   78  A    between atoms: _171  and  _174
REMARK   79  A    between atoms: _174  and  _175
REMARK   80  A    between atoms: _178  and  _180
REMARK   81  A    between atoms: _180  and  _181
REMARK   82  A    between atoms: _180  and  _183
REMARK   83  A    between atoms: _185  and  _187
REMARK   84  A    between atoms: _187  and  _188
REMARK   85  A    between atoms: _187  and  _190
REMARK   86  A    between atoms: _190  and  _191
REMARK   87  A    between atoms: _194  and  _196
REMARK   88  A    between atoms: _196  and  _197
REMARK   89  A    between atoms: _196  and  _199
REMARK   90  A    between atoms: _199  and  _200
REMARK   91  A    between atoms: _203  and  _205
REMARK   92  A    between atoms: _205  and  _206
REMARK   93  A    between atoms: _205  and  _208
REMARK   94  A    between atoms: _208  and  _209
REMARK   95  A    between atoms: _209  and  _210
REMARK   96  A    between atoms: _210  and  _211
REMARK   97  A    between atoms: _220  and  _222
REMARK   98  A    between atoms: _222  and  _223
REMARK   99  A    between atoms: _222  and  _225
REMARK  100  A    between atoms: _225  and  _226
REMARK  101  A    between atoms: _226  and  _227
REMARK  102  A    between atoms: _232  and  _234
REMARK  103  A    between atoms: _234  and  _235
REMARK  104  A    between atoms: _234  and  _237
REMARK  105  A    between atoms: _239  and  _241
REMARK  106  A    between atoms: _241  and  _242
REMARK  107  A    between atoms: _241  and  _244
REMARK  108  A    between atoms: _244  and  _245
REMARK  109  A    between atoms: _247  and  _249
REMARK  110  A    between atoms: _249  and  _250
REMARK  111  A    between atoms: _249  and  _252
REMARK  112  A    between atoms: _252  and  _253
REMARK  113  A    between atoms: _256  and  _258
REMARK  114  A    between atoms: _258  and  _259
REMARK  115  A    between atoms: _261  and  _263
REMARK  116  A    between atoms: _263  and  _264
REMARK  117  A    between atoms: _266  and  _268
REMARK  118  A    between atoms: _268  and  _269
REMARK  119  A    between atoms: _268  and  _271
REMARK  120  A    between atoms: _271  and  _272
REMARK  121  A    between atoms: _275  and  _277
REMARK  122  A    between atoms: _277  and  _278
REMARK  123  A    between atoms: _277  and  _280
REMARK  124  A    between atoms: _283  and  _285
REMARK  125  A    between atoms: _285  and  _286
REMARK  126  A    between atoms: _285  and  _288
REMARK  127  A    between atoms: _288  and  _289
REMARK  128  A    between atoms: _292  and  _294
REMARK  129  A    between atoms: _294  and  _295
REMARK  130  A    between atoms: _294  and  _297
REMARK  131  A    between atoms: _297  and  _298
REMARK  132  A    between atoms: _298  and  _299
REMARK  133  A    between atoms: _301  and  _303
REMARK  134  A    between atoms: _303  and  _304
REMARK  135  A    between atoms: _303  and  _306
REMARK  136  A    between atoms: _306  and  _307
REMARK  137  A    between atoms: _310  and  _312
REMARK  138  A    between atoms: _312  and  _313
REMARK  139  A    between atoms: _315  and  _317
REMARK  140  A    between atoms: _317  and  _318
REMARK  141  A    between atoms: _317  and  _320
REMARK  142  A    between atoms: _320  and  _321
REMARK  143  A    between atoms: _321  and  _322
REMARK  144  A    between atoms: _322  and  _323
REMARK  145  A    between atoms: _332  and  _334
REMARK  146  A    between atoms: _334  and  _335
REMARK  147  A    between atoms: _334  and  _337
REMARK  148  A    between atoms: _337  and  _338
REMARK  149  A    between atoms: _343  and  _344
REMARK  150  A    between atoms: _346  and  _348
REMARK  151  A    between atoms: _348  and  _349
REMARK  152  A    between atoms: _348  and  _351
REMARK  153  A    between atoms: _351  and  _352
REMARK  154  A    between atoms: _358  and  _360
REMARK  155  A    between atoms: _360  and  _361
REMARK  156  A    between atoms: _364  and  _366
REMARK  157  A    between atoms: _366  and  _367
REMARK  158  A    between atoms: _366  and  _369
REMARK  159  A    between atoms: _369  and  _370
REMARK  160  A    between atoms: _375  and  _376
REMARK  161  A    between atoms: _378  and  _380
REMARK  162  A    between atoms: _380  and  _381
REMARK  163  A    between atoms: _380  and  _383
REMARK  164  A    between atoms: _383  and  _384
REMARK  165  A    between atoms: _394  and  _396
REMARK  166  A    between atoms: _396  and  _397
REMARK  167  A    between atoms: _399  and  _401
REMARK  168  A    between atoms: _401  and  _402
REMARK  169  A    between atoms: _401  and  _404
REMARK  170  A    between atoms: _404  and  _405
REMARK  171  A    between atoms: _405  and  _406
REMARK  172  A    between atoms: _409  and  _411
REMARK  173  A    between atoms: _411  and  _412
REMARK  174  A    between atoms: _414  and  _416
REMARK  175  A    between atoms: _416  and  _417
REMARK  176  A    between atoms: _416  and  _419
REMARK  177  A    between atoms: _419  and  _420
REMARK  178  A    between atoms: _422  and  _424
REMARK  179  A    between atoms: _424  and  _425
REMARK  180  A    between atoms: _424  and  _427
REMARK  181  A    between atoms: _427  and  _428
REMARK  182  A    between atoms: _430  and  _432
REMARK  183  A    between atoms: _432  and  _433
REMARK  184  A    between atoms: _436  and  _438
REMARK  185  A    between atoms: _438  and  _439
REMARK  186  A    between atoms: _438  and  _441
REMARK  187  A    between atoms: _441  and  _442
REMARK  188  A    between atoms: _442  and  _443
REMARK  189  A    between atoms: _443  and  _444
REMARK  190  A    between atoms: _453  and  _455
REMARK  191  A    between atoms: _455  and  _456
REMARK  192  A    between atoms: _455  and  _458
REMARK  193  A    between atoms: _458  and  _459
REMARK  194  A    between atoms: _464  and  _466
REMARK  195  A    between atoms: _466  and  _467
REMARK  196  A    between atoms: _466  and  _469
REMARK  197  A    between atoms: _469  and  _470
REMARK  198  A    between atoms: _470  and  _471
REMARK  199  A    between atoms: _471  and  _472
REMARK  200  A    between atoms: _481  and  _483
REMARK  201  A    between atoms: _483  and  _484
REMARK  202  A    between atoms: _483  and  _486
REMARK  203  A    between atoms: _486  and  _487
REMARK  204  A    between atoms: _492  and  _493
REMARK  205  A    between atoms: _495  and  _497
REMARK  206  A    between atoms: _497  and  _498
REMARK  207  A    between atoms: _497  and  _500
REMARK  208  A    between atoms: _500  and  _501
REMARK  209  A    between atoms: _504  and  _506
REMARK  210  A    between atoms: _506  and  _507
REMARK  211  A    between atoms: _506  and  _509
REMARK  212  A    between atoms: _509  and  _510
REMARK  213  A    between atoms: _510  and  _511
REMARK  214  A    between atoms: _514  and  _516
REMARK  215  A    between atoms: _516  and  _517
REMARK  216  A    between atoms: _516  and  _519
REMARK  217  A    between atoms: _519  and  _520
REMARK  218  A    between atoms: _520  and  _521
REMARK  219  A    between atoms: _524  and  _526
REMARK  220  A    between atoms: _526  and  _527
REMARK  221  A    between atoms: _529  and  _531
REMARK  222  A    between atoms: _531  and  _532
REMARK  223  A    between atoms: _531  and  _534
REMARK  224  A    between atoms: _537  and  _539
REMARK  225  A    between atoms: _539  and  _540
REMARK  226  A    between atoms: _539  and  _542
REMARK  227  A    between atoms: _542  and  _543
REMARK  228  A    between atoms: _546  and  _548
REMARK  229  A    between atoms: _548  and  _549
REMARK  230  A    between atoms: _548  and  _551
REMARK  231  A    between atoms: _554  and  _556
REMARK  232  A    between atoms: _556  and  _557
REMARK  233  A    between atoms: _556  and  _559
REMARK  234  A    between atoms: _559  and  _560
REMARK  235  A    between atoms: _560  and  _561
REMARK  236  A    between atoms: _564  and  _566
REMARK  237  A    between atoms: _566  and  _567
REMARK  238  A    between atoms: _566  and  _569
REMARK  239  A    between atoms: _569  and  _570
REMARK  240  A    between atoms: _575  and  _577
REMARK  241  A    between atoms: _577  and  _578
REMARK  242  A    between atoms: _577  and  _580
REMARK  243  A    between atoms: _580  and  _581
REMARK  244  A    between atoms: _584  and  _586
REMARK  245  A    between atoms: _586  and  _587
REMARK  246  A    between atoms: _586  and  _589
REMARK                            x       y       z     vdW  Elec       q    Type
REMARK                         _______ _______ _______ _____ _____    ______ ____
ROOT
ATOM      1  O   HOH     1     -19.921  34.124  51.967  0.00  0.00    +0.000 OA
ENDROOT
TORSDOF 0
REMARK  Name = ../refined-set-2016/1pvn/1pvn_pocket.pdb
REMARK  246 active torsions:
REMARK  status: ('A' for Active; 'I' for Inactive)
REMARK    1  A    between atoms: _1  and  _3
REMARK    2  A    between atoms: _3  and  _4
REMARK    3  A    between atoms: _3  and  _6
REMARK    4  A    between atoms: _9  and  _11
REMARK    5  A    between atoms: _11  and  _12
REMARK    6  A    between atoms: _11  and  _14
REMARK    7  A    between atoms: _14  and  _15
REMARK    8  A    between atoms: _17  and  _19
REMARK    9  A    between atoms: _19  and  _20
REMARK   10  A    between atoms: _23  and  _25
REMARK   11  A    between atoms: _25  and  _26
REMARK   12  A    between atoms: _25  and  _28
REMARK   13  A    between atoms: _28  and  _29
REMARK   14  A    between atoms: _32  and  _34
REMARK   15  A    between atoms: _34  and  _35
REMARK   16  A    between atoms: _34  and  _37
REMARK   17  A    between atoms: _37  and  _38
REMARK   18  A    between atoms: _38  and  _39
REMARK   19  A    between atoms: _41  and  _43
REMARK   20  A    between atoms: _43  and  _44
REMARK   21  A    between atoms: _43  and  _46
REMARK   22  A    between atoms: _46  and  _47
REMARK   23  A    between atoms: _47  and  _48
REMARK   24  A    between atoms: _53  and  _55
REMARK   25  A    between atoms: _55  and  _56
REMARK   26  A    between atoms: _55  and  _58
REMARK   27  A    between atoms: _58  and  _59
REMARK   28  A    between atoms: _61  and  _63
REMARK   29  A    between atoms: _63  and  _64
REMARK   30  A    between atoms: _63  and  _66
REMARK   31  A    between atoms: _69  and  _71
REMARK   32  A    between atoms: _71  and  _72
REMARK   33  A    between atoms: _71  and  _74
REMARK   34  A    between atoms: _74  and  _75
REMARK   35  A    between atoms: _78  and  _80
REMARK   36  A    between atoms: _80  and  _81
REMARK   37  A    between atoms: _80  and  _83
REMARK   38  A    between atoms: _83  and  _84
REMARK   39  A    between atoms: _86  and  _88
REMARK   40  A    between atoms: _88  and  _89
REMARK   41  A    between atoms: _88  and  _91
REMARK   42  A    between atoms: _91  and  _92
REMARK   43  A    between atoms: _94  and  _96
REMARK   44  A    between atoms: _96  and  _97
REMARK   45  A    between atoms: _99  and  _101
REMARK   46  A    between atoms: _101  and  _102
REMARK   47  A    between atoms: _101  and  _104
REMARK   48  A    between atoms: _104  and  _105
REMARK   49  A    between atoms: _110  and  _112
REMARK   50  A    between atoms: _112  and  _113
REMARK   51  A    between atoms: _112  and  _115
REMARK   52  A    between atoms: _115  and  _116
REMARK   53  A    between atoms: _116  and  _117
REMARK   54  A    between atoms: _117  and  _118
REMARK   55  A    between atoms: _118  and  _119
REMARK   56  A    between atoms: _123  and  _125
REMARK   57  A    between atoms: _125  and  _126
REMARK   58  A    between atoms: _125  and  _128
REMARK   59  A    between atoms: _128  and  _129
REMARK   60  A    between atoms: _132  and  _134
REMARK   61  A    between atoms: _134  and  _135
REMARK   62  A    between atoms: _137  and  _139
REMARK   63  A    between atoms: _139  and  _140
REMARK   64  A    between atoms: _139  and  _142
REMARK   65  A    between atoms: _142  and  _143
REMARK   66  A    between atoms: _146  and  _148
REMARK   67  A    between atoms: _148  and  _149
REMARK   68  A    between atoms: _151  and  _153
REMARK   69  A    between atoms: _153  and  _154
REMARK   70  A    between atoms: _156  and  _158
REMARK   71  A    between atoms: _158  and  _159
REMARK   72  A    between atoms: _161  and  _163
REMARK   73  A    between atoms: _163  and  _164
REMARK   74  A    between atoms: _163  and  _166
REMARK   75  A    between atoms: _166  and  _167
REMARK   76  A    between atoms: _169  and  _171
REMARK   77  A    between atoms: _171  and  _172
REMARK   78  A    between atoms: _171  and  _174
REMARK   79  A    between atoms: _174  and  _175
REMARK   80  A    between atoms: _178  and  _180
REMARK   81  A    between atoms: _180  and  _181
REMARK   82  A    between atoms: _180  and  _183
REMARK   83  A    between atoms: _185  and  _187
REMARK   84  A    between atoms: _187  and  _188
REMARK   85  A    between atoms: _187  and  _190
REMARK   86  A    between atoms: _190  and  _191
REMARK   87  A    between atoms: _194  and  _196
REMARK   88  A    between atoms: _196  and  _197
REMARK   89  A    between atoms: _196  and  _199
REMARK   90  A    between atoms: _199  and  _200
REMARK   91  A    between atoms: _203  and  _205
REMARK   92  A    between atoms: _205  and  _206
REMARK   93  A    between atoms: _205  and  _208
REMARK   94  A    between atoms: _208  and  _209
REMARK   95  A    between atoms: _209  and  _210
REMARK   96  A    between atoms: _210  and  _211
REMARK   97  A    between atoms: _220  and  _222
REMARK   98  A    between atoms: _222  and  _223
REMARK   99  A    between atoms: _222  and  _225
REMARK  100  A    between atoms: _225  and  _226
REMARK  101  A    between atoms: _226  and  _227
REMARK  102  A    between atoms: _232  and  _234
REMARK  103  A    between atoms: _234  and  _235
REMARK  104  A    between atoms: _234  and  _237
REMARK  105  A    between atoms: _239  and  _241
REMARK  106  A    between atoms: _241  and  _242
REMARK  107  A    between atoms: _241  and  _244
REMARK  108  A    between atoms: _244  and  _245
REMARK  109  A    between atoms: _247  and  _249
REMARK  110  A    between atoms: _249  and  _250
REMARK  111  A    between atoms: _249  and  _252
REMARK  112  A    between atoms: _252  and  _253
REMARK  113  A    between atoms: _256  and  _258
REMARK  114  A    between atoms: _258  and  _259
REMARK  115  A    between atoms: _261  and  _263
REMARK  116  A    between atoms: _263  and  _264
REMARK  117  A    between atoms: _266  and  _268
REMARK  118  A    between atoms: _268  and  _269
REMARK  119  A    between atoms: _268  and  _271
REMARK  120  A    between atoms: _271  and  _272
REMARK  121  A    between atoms: _275  and  _277
REMARK  122  A    between atoms: _277  and  _278
REMARK  123  A    between atoms: _277  and  _280
REMARK  124  A    between atoms: _283  and  _285
REMARK  125  A    between atoms: _285  and  _286
REMARK  126  A    between atoms: _285  and  _288
REMARK  127  A    between atoms: _288  and  _289
REMARK  128  A    between atoms: _292  and  _294
REMARK  129  A    between atoms: _294  and  _295
REMARK  130  A    between atoms: _294  and  _297
REMARK  131  A    between atoms: _297  and  _298
REMARK  132  A    between atoms: _298  and  _299
REMARK  133  A    between atoms: _301  and  _303
REMARK  134  A    between atoms: _303  and  _304
REMARK  135  A    between atoms: _303  and  _306
REMARK  136  A    between atoms: _306  and  _307
REMARK  137  A    between atoms: _310  and  _312
REMARK  138  A    between atoms: _312  and  _313
REMARK  139  A    between atoms: _315  and  _317
REMARK  140  A    between atoms: _317  and  _318
REMARK  141  A    between atoms: _317  and  _320
REMARK  142  A    between atoms: _320  and  _321
REMARK  143  A    between atoms: _321  and  _322
REMARK  144  A    between atoms: _322  and  _323
REMARK  145  A    between atoms: _332  and  _334
REMARK  146  A    between atoms: _334  and  _335
REMARK  147  A    between atoms: _334  and  _337
REMARK  148  A    between atoms: _337  and  _338
REMARK  149  A    between atoms: _343  and  _344
REMARK  150  A    between atoms: _346  and  _348
REMARK  151  A    between atoms: _348  and  _349
REMARK  152  A    between atoms: _348  and  _351
REMARK  153  A    between atoms: _351  and  _352
REMARK  154  A    between atoms: _358  and  _360
REMARK  155  A    between atoms: _360  and  _361
REMARK  156  A    between atoms: _364  and  _366
REMARK  157  A    between atoms: _366  and  _367
REMARK  158  A    between atoms: _366  and  _369
REMARK  159  A    between atoms: _369  and  _370
REMARK  160  A    between atoms: _375  and  _376
REMARK  161  A    between atoms: _378  and  _380
REMARK  162  A    between atoms: _380  and  _381
REMARK  163  A    between atoms: _380  and  _383
REMARK  164  A    between atoms: _383  and  _384
REMARK  165  A    between atoms: _394  and  _396
REMARK  166  A    between atoms: _396  and  _397
REMARK  167  A    between atoms: _399  and  _401
REMARK  168  A    between atoms: _401  and  _402
REMARK  169  A    between atoms: _401  and  _404
REMARK  170  A    between atoms: _404  and  _405
REMARK  171  A    between atoms: _405  and  _406
REMARK  172  A    between atoms: _409  and  _411
REMARK  173  A    between atoms: _411  and  _412
REMARK  174  A    between atoms: _414  and  _416
REMARK  175  A    between atoms: _416  and  _417
REMARK  176  A    between atoms: _416  and  _419
REMARK  177  A    between atoms: _419  and  _420
REMARK  178  A    between atoms: _422  and  _424
REMARK  179  A    between atoms: _424  and  _425
REMARK  180  A    between atoms: _424  and  _427
REMARK  181  A    between atoms: _427  and  _428
REMARK  182  A    between atoms: _430  and  _432
REMARK  183  A    between atoms: _432  and  _433
REMARK  184  A    between atoms: _436  and  _438
REMARK  185  A    between atoms: _438  and  _439
REMARK  186  A    between atoms: _438  and  _441
REMARK  187  A    between atoms: _441  and  _442
REMARK  188  A    between atoms: _442  and  _443
REMARK  189  A    between atoms: _443  and  _444
REMARK  190  A    between atoms: _453  and  _455
REMARK  191  A    between atoms: _455  and  _456
REMARK  192  A    between atoms: _455  and  _458
REMARK  193  A    between atoms: _458  and  _459
REMARK  194  A    between atoms: _464  and  _466
REMARK  195  A    between atoms: _466  and  _467
REMARK  196  A    between atoms: _466  and  _469
REMARK  197  A    between atoms: _469  and  _470
REMARK  198  A    between atoms: _470  and  _471
REMARK  199  A    between atoms: _471  and  _472
REMARK  200  A    between atoms: _481  and  _483
REMARK  201  A    between atoms: _483  and  _484
REMARK  202  A    between atoms: _483  and  _486
REMARK  203  A    between atoms: _486  and  _487
REMARK  204  A    between atoms: _492  and  _493
REMARK  205  A    between atoms: _495  and  _497
REMARK  206  A    between atoms: _497  and  _498
REMARK  207  A    between atoms: _497  and  _500
REMARK  208  A    between atoms: _500  and  _501
REMARK  209  A    between atoms: _504  and  _506
REMARK  210  A    between atoms: _506  and  _507
REMARK  211  A    between atoms: _506  and  _509
REMARK  212  A    between atoms: _509  and  _510
REMARK  213  A    between atoms: _510  and  _511
REMARK  214  A    between atoms: _514  and  _516
REMARK  215  A    between atoms: _516  and  _517
REMARK  216  A    between atoms: _516  and  _519
REMARK  217  A    between atoms: _519  and  _520
REMARK  218  A    between atoms: _520  and  _521
REMARK  219  A    between atoms: _524  and  _526
REMARK  220  A    between atoms: _526  and  _527
REMARK  221  A    between atoms: _529  and  _531
REMARK  222  A    between atoms: _531  and  _532
REMARK  223  A    between atoms: _531  and  _534
REMARK  224  A    between atoms: _537  and  _539
REMARK  225  A    between atoms: _539  and  _540
REMARK  226  A    between atoms: _539  and  _542
REMARK  227  A    between atoms: _542  and  _543
REMARK  228  A    between atoms: _546  and  _548
REMARK  229  A    between atoms: _548  and  _549
REMARK  230  A    between atoms: _548  and  _551
REMARK  231  A    between atoms: _554  and  _556
REMARK  232  A    between atoms: _556  and  _557
REMARK  233  A    between atoms: _556  and  _559
REMARK  234  A    between atoms: _559  and  _560
REMARK  235  A    between atoms: _560  and  _561
REMARK  236  A    between atoms: _564  and  _566
REMARK  237  A    between atoms: _566  and  _567
REMARK  238  A    between atoms: _566  and  _569
REMARK  239  A    between atoms: _569  and  _570
REMARK  240  A    between atoms: _575  and  _577
REMARK  241  A    between atoms: _577  and  _578
REMARK  242  A    between atoms: _577  and  _580
REMARK  243  A    between atoms: _580  and  _581
REMARK  244  A    between atoms: _584  and  _586
REMARK  245  A    between atoms: _586  and  _587
REMARK  246  A    between atoms: _586  and  _589
REMARK                            x       y       z     vdW  Elec       q    Type
REMARK                         _______ _______ _______ _____ _____    ______ ____
ROOT
ATOM      1  O   HOH     1     -19.580  41.322  51.191  0.00  0.00    +0.000 OA
ENDROOT
TORSDOF 0
REMARK  Name = ../refined-set-2016/1pvn/1pvn_pocket.pdb
REMARK  246 active torsions:
REMARK  status: ('A' for Active; 'I' for Inactive)
REMARK    1  A    between atoms: _1  and  _3
REMARK    2  A    between atoms: _3  and  _4
REMARK    3  A    between atoms: _3  and  _6
REMARK    4  A    between atoms: _9  and  _11
REMARK    5  A    between atoms: _11  and  _12
REMARK    6  A    between atoms: _11  and  _14
REMARK    7  A    between atoms: _14  and  _15
REMARK    8  A    between atoms: _17  and  _19
REMARK    9  A    between atoms: _19  and  _20
REMARK   10  A    between atoms: _23  and  _25
REMARK   11  A    between atoms: _25  and  _26
REMARK   12  A    between atoms: _25  and  _28
REMARK   13  A    between atoms: _28  and  _29
REMARK   14  A    between atoms: _32  and  _34
REMARK   15  A    between atoms: _34  and  _35
REMARK   16  A    between atoms: _34  and  _37
REMARK   17  A    between atoms: _37  and  _38
REMARK   18  A    between atoms: _38  and  _39
REMARK   19  A    between atoms: _41  and  _43
REMARK   20  A    between atoms: _43  and  _44
REMARK   21  A    between atoms: _43  and  _46
REMARK   22  A    between atoms: _46  and  _47
REMARK   23  A    between atoms: _47  and  _48
REMARK   24  A    between atoms: _53  and  _55
REMARK   25  A    between atoms: _55  and  _56
REMARK   26  A    between atoms: _55  and  _58
REMARK   27  A    between atoms: _58  and  _59
REMARK   28  A    between atoms: _61  and  _63
REMARK   29  A    between atoms: _63  and  _64
REMARK   30  A    between atoms: _63  and  _66
REMARK   31  A    between atoms: _69  and  _71
REMARK   32  A    between atoms: _71  and  _72
REMARK   33  A    between atoms: _71  and  _74
REMARK   34  A    between atoms: _74  and  _75
REMARK   35  A    between atoms: _78  and  _80
REMARK   36  A    between atoms: _80  and  _81
REMARK   37  A    between atoms: _80  and  _83
REMARK   38  A    between atoms: _83  and  _84
REMARK   39  A    between atoms: _86  and  _88
REMARK   40  A    between atoms: _88  and  _89
REMARK   41  A    between atoms: _88  and  _91
REMARK   42  A    between atoms: _91  and  _92
REMARK   43  A    between atoms: _94  and  _96
REMARK   44  A    between atoms: _96  and  _97
REMARK   45  A    between atoms: _99  and  _101
REMARK   46  A    between atoms: _101  and  _102
REMARK   47  A    between atoms: _101  and  _104
REMARK   48  A    between atoms: _104  and  _105
REMARK   49  A    between atoms: _110  and  _112
REMARK   50  A    between atoms: _112  and  _113
REMARK   51  A    between atoms: _112  and  _115
REMARK   52  A    between atoms: _115  and  _116
REMARK   53  A    between atoms: _116  and  _117
REMARK   54  A    between atoms: _117  and  _118
REMARK   55  A    between atoms: _118  and  _119
REMARK   56  A    between atoms: _123  and  _125
REMARK   57  A    between atoms: _125  and  _126
REMARK   58  A    between atoms: _125  and  _128
REMARK   59  A    between atoms: _128  and  _129
REMARK   60  A    between atoms: _132  and  _134
REMARK   61  A    between atoms: _134  and  _135
REMARK   62  A    between atoms: _137  and  _139
REMARK   63  A    between atoms: _139  and  _140
REMARK   64  A    between atoms: _139  and  _142
REMARK   65  A    between atoms: _142  and  _143
REMARK   66  A    between atoms: _146  and  _148
REMARK   67  A    between atoms: _148  and  _149
REMARK   68  A    between atoms: _151  and  _153
REMARK   69  A    between atoms: _153  and  _154
REMARK   70  A    between atoms: _156  and  _158
REMARK   71  A    between atoms: _158  and  _159
REMARK   72  A    between atoms: _161  and  _163
REMARK   73  A    between atoms: _163  and  _164
REMARK   74  A    between atoms: _163  and  _166
REMARK   75  A    between atoms: _166  and  _167
REMARK   76  A    between atoms: _169  and  _171
REMARK   77  A    between atoms: _171  and  _172
REMARK   78  A    between atoms: _171  and  _174
REMARK   79  A    between atoms: _174  and  _175
REMARK   80  A    between atoms: _178  and  _180
REMARK   81  A    between atoms: _180  and  _181
REMARK   82  A    between atoms: _180  and  _183
REMARK   83  A    between atoms: _185  and  _187
REMARK   84  A    between atoms: _187  and  _188
REMARK   85  A    between atoms: _187  and  _190
REMARK   86  A    between atoms: _190  and  _191
REMARK   87  A    between atoms: _194  and  _196
REMARK   88  A    between atoms: _196  and  _197
REMARK   89  A    between atoms: _196  and  _199
REMARK   90  A    between atoms: _199  and  _200
REMARK   91  A    between atoms: _203  and  _205
REMARK   92  A    between atoms: _205  and  _206
REMARK   93  A    between atoms: _205  and  _208
REMARK   94  A    between atoms: _208  and  _209
REMARK   95  A    between atoms: _209  and  _210
REMARK   96  A    between atoms: _210  and  _211
REMARK   97  A    between atoms: _220  and  _222
REMARK   98  A    between atoms: _222  and  _223
REMARK   99  A    between atoms: _222  and  _225
REMARK  100  A    between atoms: _225  and  _226
REMARK  101  A    between atoms: _226  and  _227
REMARK  102  A    between atoms: _232  and  _234
REMARK  103  A    between atoms: _234  and  _235
REMARK  104  A    between atoms: _234  and  _237
REMARK  105  A    between atoms: _239  and  _241
REMARK  106  A    between atoms: _241  and  _242
REMARK  107  A    between atoms: _241  and  _244
REMARK  108  A    between atoms: _244  and  _245
REMARK  109  A    between atoms: _247  and  _249
REMARK  110  A    between atoms: _249  and  _250
REMARK  111  A    between atoms: _249  and  _252
REMARK  112  A    between atoms: _252  and  _253
REMARK  113  A    between atoms: _256  and  _258
REMARK  114  A    between atoms: _258  and  _259
REMARK  115  A    between atoms: _261  and  _263
REMARK  116  A    between atoms: _263  and  _264
REMARK  117  A    between atoms: _266  and  _268
REMARK  118  A    between atoms: _268  and  _269
REMARK  119  A    between atoms: _268  and  _271
REMARK  120  A    between atoms: _271  and  _272
REMARK  121  A    between atoms: _275  and  _277
REMARK  122  A    between atoms: _277  and  _278
REMARK  123  A    between atoms: _277  and  _280
REMARK  124  A    between atoms: _283  and  _285
REMARK  125  A    between atoms: _285  and  _286
REMARK  126  A    between atoms: _285  and  _288
REMARK  127  A    between atoms: _288  and  _289
REMARK  128  A    between atoms: _292  and  _294
REMARK  129  A    between atoms: _294  and  _295
REMARK  130  A    between atoms: _294  and  _297
REMARK  131  A    between atoms: _297  and  _298
REMARK  132  A    between atoms: _298  and  _299
REMARK  133  A    between atoms: _301  and  _303
REMARK  134  A    between atoms: _303  and  _304
REMARK  135  A    between atoms: _303  and  _306
REMARK  136  A    between atoms: _306  and  _307
REMARK  137  A    between atoms: _310  and  _312
REMARK  138  A    between atoms: _312  and  _313
REMARK  139  A    between atoms: _315  and  _317
REMARK  140  A    between atoms: _317  and  _318
REMARK  141  A    between atoms: _317  and  _320
REMARK  142  A    between atoms: _320  and  _321
REMARK  143  A    between atoms: _321  and  _322
REMARK  144  A    between atoms: _322  and  _323
REMARK  145  A    between atoms: _332  and  _334
REMARK  146  A    between atoms: _334  and  _335
REMARK  147  A    between atoms: _334  and  _337
REMARK  148  A    between atoms: _337  and  _338
REMARK  149  A    between atoms: _343  and  _344
REMARK  150  A    between atoms: _346  and  _348
REMARK  151  A    between atoms: _348  and  _349
REMARK  152  A    between atoms: _348  and  _351
REMARK  153  A    between atoms: _351  and  _352
REMARK  154  A    between atoms: _358  and  _360
REMARK  155  A    between atoms: _360  and  _361
REMARK  156  A    between atoms: _364  and  _366
REMARK  157  A    between atoms: _366  and  _367
REMARK  158  A    between atoms: _366  and  _369
REMARK  159  A    between atoms: _369  and  _370
REMARK  160  A    between atoms: _375  and  _376
REMARK  161  A    between atoms: _378  and  _380
REMARK  162  A    between atoms: _380  and  _381
REMARK  163  A    between atoms: _380  and  _383
REMARK  164  A    between atoms: _383  and  _384
REMARK  165  A    between atoms: _394  and  _396
REMARK  166  A    between atoms: _396  and  _397
REMARK  167  A    between atoms: _399  and  _401
REMARK  168  A    between atoms: _401  and  _402
REMARK  169  A    between atoms: _401  and  _404
REMARK  170  A    between atoms: _404  and  _405
REMARK  171  A    between atoms: _405  and  _406
REMARK  172  A    between atoms: _409  and  _411
REMARK  173  A    between atoms: _411  and  _412
REMARK  174  A    between atoms: _414  and  _416
REMARK  175  A    between atoms: _416  and  _417
REMARK  176  A    between atoms: _416  and  _419
REMARK  177  A    between atoms: _419  and  _420
REMARK  178  A    between atoms: _422  and  _424
REMARK  179  A    between atoms: _424  and  _425
REMARK  180  A    between atoms: _424  and  _427
REMARK  181  A    between atoms: _427  and  _428
REMARK  182  A    between atoms: _430  and  _432
REMARK  183  A    between atoms: _432  and  _433
REMARK  184  A    between atoms: _436  and  _438
REMARK  185  A    between atoms: _438  and  _439
REMARK  186  A    between atoms: _438  and  _441
REMARK  187  A    between atoms: _441  and  _442
REMARK  188  A    between atoms: _442  and  _443
REMARK  189  A    between atoms: _443  and  _444
REMARK  190  A    between atoms: _453  and  _455
REMARK  191  A    between atoms: _455  and  _456
REMARK  192  A    between atoms: _455  and  _458
REMARK  193  A    between atoms: _458  and  _459
REMARK  194  A    between atoms: _464  and  _466
REMARK  195  A    between atoms: _466  and  _467
REMARK  196  A    between atoms: _466  and  _469
REMARK  197  A    between atoms: _469  and  _470
REMARK  198  A    between atoms: _470  and  _471
REMARK  199  A    between atoms: _471  and  _472
REMARK  200  A    between atoms: _481  and  _483
REMARK  201  A    between atoms: _483  and  _484
REMARK  202  A    between atoms: _483  and  _486
REMARK  203  A    between atoms: _486  and  _487
REMARK  204  A    between atoms: _492  and  _493
REMARK  205  A    between atoms: _495  and  _497
REMARK  206  A    between atoms: _497  and  _498
REMARK  207  A    between atoms: _497  and  _500
REMARK  208  A    between atoms: _500  and  _501
REMARK  209  A    between atoms: _504  and  _506
REMARK  210  A    between atoms: _506  and  _507
REMARK  211  A    between atoms: _506  and  _509
REMARK  212  A    between atoms: _509  and  _510
REMARK  213  A    between atoms: _510  and  _511
REMARK  214  A    between atoms: _514  and  _516
REMARK  215  A    between atoms: _516  and  _517
REMARK  216  A    between atoms: _516  and  _519
REMARK  217  A    between atoms: _519  and  _520
REMARK  218  A    between atoms: _520  and  _521
REMARK  219  A    between atoms: _524  and  _526
REMARK  220  A    between atoms: _526  and  _527
REMARK  221  A    between atoms: _529  and  _531
REMARK  222  A    between atoms: _531  and  _532
REMARK  223  A    between atoms: _531  and  _534
REMARK  224  A    between atoms: _537  and  _539
REMARK  225  A    between atoms: _539  and  _540
REMARK  226  A    between atoms: _539  and  _542
REMARK  227  A    between atoms: _542  and  _543
REMARK  228  A    between atoms: _546  and  _548
REMARK  229  A    between atoms: _548  and  _549
REMARK  230  A    between atoms: _548  and  _551
REMARK  231  A    between atoms: _554  and  _556
REMARK  232  A    between atoms: _556  and  _557
REMARK  233  A    between atoms: _556  and  _559
REMARK  234  A    between atoms: _559  and  _560
REMARK  235  A    between atoms: _560  and  _561
REMARK  236  A    between atoms: _564  and  _566
REMARK  237  A    between atoms: _566  and  _567
REMARK  238  A    between atoms: _566  and  _569
REMARK  239  A    between atoms: _569  and  _570
REMARK  240  A    between atoms: _575  and  _577
REMARK  241  A    between atoms: _577  and  _578
REMARK  242  A    between atoms: _577  and  _580
REMARK  243  A    between atoms: _580  and  _581
REMARK  244  A    between atoms: _584  and  _586
REMARK  245  A    between atoms: _586  and  _587
REMARK  246  A    between atoms: _586  and  _589
REMARK                            x       y       z     vdW  Elec       q    Type
REMARK                         _______ _______ _______ _____ _____    ______ ____
ROOT
ATOM      1  O   HOH     1     -30.254  29.823  46.121  0.00  0.00    +0.000 OA
ENDROOT
TORSDOF 0
REMARK  Name = ../refined-set-2016/1pvn/1pvn_pocket.pdb
REMARK  246 active torsions:
REMARK  status: ('A' for Active; 'I' for Inactive)
REMARK    1  A    between atoms: _1  and  _3
REMARK    2  A    between atoms: _3  and  _4
REMARK    3  A    between atoms: _3  and  _6
REMARK    4  A    between atoms: _9  and  _11
REMARK    5  A    between atoms: _11  and  _12
REMARK    6  A    between atoms: _11  and  _14
REMARK    7  A    between atoms: _14  and  _15
REMARK    8  A    between atoms: _17  and  _19
REMARK    9  A    between atoms: _19  and  _20
REMARK   10  A    between atoms: _23  and  _25
REMARK   11  A    between atoms: _25  and  _26
REMARK   12  A    between atoms: _25  and  _28
REMARK   13  A    between atoms: _28  and  _29
REMARK   14  A    between atoms: _32  and  _34
REMARK   15  A    between atoms: _34  and  _35
REMARK   16  A    between atoms: _34  and  _37
REMARK   17  A    between atoms: _37  and  _38
REMARK   18  A    between atoms: _38  and  _39
REMARK   19  A    between atoms: _41  and  _43
REMARK   20  A    between atoms: _43  and  _44
REMARK   21  A    between atoms: _43  and  _46
REMARK   22  A    between atoms: _46  and  _47
REMARK   23  A    between atoms: _47  and  _48
REMARK   24  A    between atoms: _53  and  _55
REMARK   25  A    between atoms: _55  and  _56
REMARK   26  A    between atoms: _55  and  _58
REMARK   27  A    between atoms: _58  and  _59
REMARK   28  A    between atoms: _61  and  _63
REMARK   29  A    between atoms: _63  and  _64
REMARK   30  A    between atoms: _63  and  _66
REMARK   31  A    between atoms: _69  and  _71
REMARK   32  A    between atoms: _71  and  _72
REMARK   33  A    between atoms: _71  and  _74
REMARK   34  A    between atoms: _74  and  _75
REMARK   35  A    between atoms: _78  and  _80
REMARK   36  A    between atoms: _80  and  _81
REMARK   37  A    between atoms: _80  and  _83
REMARK   38  A    between atoms: _83  and  _84
REMARK   39  A    between atoms: _86  and  _88
REMARK   40  A    between atoms: _88  and  _89
REMARK   41  A    between atoms: _88  and  _91
REMARK   42  A    between atoms: _91  and  _92
REMARK   43  A    between atoms: _94  and  _96
REMARK   44  A    between atoms: _96  and  _97
REMARK   45  A    between atoms: _99  and  _101
REMARK   46  A    between atoms: _101  and  _102
REMARK   47  A    between atoms: _101  and  _104
REMARK   48  A    between atoms: _104  and  _105
REMARK   49  A    between atoms: _110  and  _112
REMARK   50  A    between atoms: _112  and  _113
REMARK   51  A    between atoms: _112  and  _115
REMARK   52  A    between atoms: _115  and  _116
REMARK   53  A    between atoms: _116  and  _117
REMARK   54  A    between atoms: _117  and  _118
REMARK   55  A    between atoms: _118  and  _119
REMARK   56  A    between atoms: _123  and  _125
REMARK   57  A    between atoms: _125  and  _126
REMARK   58  A    between atoms: _125  and  _128
REMARK   59  A    between atoms: _128  and  _129
REMARK   60  A    between atoms: _132  and  _134
REMARK   61  A    between atoms: _134  and  _135
REMARK   62  A    between atoms: _137  and  _139
REMARK   63  A    between atoms: _139  and  _140
REMARK   64  A    between atoms: _139  and  _142
REMARK   65  A    between atoms: _142  and  _143
REMARK   66  A    between atoms: _146  and  _148
REMARK   67  A    between atoms: _148  and  _149
REMARK   68  A    between atoms: _151  and  _153
REMARK   69  A    between atoms: _153  and  _154
REMARK   70  A    between atoms: _156  and  _158
REMARK   71  A    between atoms: _158  and  _159
REMARK   72  A    between atoms: _161  and  _163
REMARK   73  A    between atoms: _163  and  _164
REMARK   74  A    between atoms: _163  and  _166
REMARK   75  A    between atoms: _166  and  _167
REMARK   76  A    between atoms: _169  and  _171
REMARK   77  A    between atoms: _171  and  _172
REMARK   78  A    between atoms: _171  and  _174
REMARK   79  A    between atoms: _174  and  _175
REMARK   80  A    between atoms: _178  and  _180
REMARK   81  A    between atoms: _180  and  _181
REMARK   82  A    between atoms: _180  and  _183
REMARK   83  A    between atoms: _185  and  _187
REMARK   84  A    between atoms: _187  and  _188
REMARK   85  A    between atoms: _187  and  _190
REMARK   86  A    between atoms: _190  and  _191
REMARK   87  A    between atoms: _194  and  _196
REMARK   88  A    between atoms: _196  and  _197
REMARK   89  A    between atoms: _196  and  _199
REMARK   90  A    between atoms: _199  and  _200
REMARK   91  A    between atoms: _203  and  _205
REMARK   92  A    between atoms: _205  and  _206
REMARK   93  A    between atoms: _205  and  _208
REMARK   94  A    between atoms: _208  and  _209
REMARK   95  A    between atoms: _209  and  _210
REMARK   96  A    between atoms: _210  and  _211
REMARK   97  A    between atoms: _220  and  _222
REMARK   98  A    between atoms: _222  and  _223
REMARK   99  A    between atoms: _222  and  _225
REMARK  100  A    between atoms: _225  and  _226
REMARK  101  A    between atoms: _226  and  _227
REMARK  102  A    between atoms: _232  and  _234
REMARK  103  A    between atoms: _234  and  _235
REMARK  104  A    between atoms: _234  and  _237
REMARK  105  A    between atoms: _239  and  _241
REMARK  106  A    between atoms: _241  and  _242
REMARK  107  A    between atoms: _241  and  _244
REMARK  108  A    between atoms: _244  and  _245
REMARK  109  A    between atoms: _247  and  _249
REMARK  110  A    between atoms: _249  and  _250
REMARK  111  A    between atoms: _249  and  _252
REMARK  112  A    between atoms: _252  and  _253
REMARK  113  A    between atoms: _256  and  _258
REMARK  114  A    between atoms: _258  and  _259
REMARK  115  A    between atoms: _261  and  _263
REMARK  116  A    between atoms: _263  and  _264
REMARK  117  A    between atoms: _266  and  _268
REMARK  118  A    between atoms: _268  and  _269
REMARK  119  A    between atoms: _268  and  _271
REMARK  120  A    between atoms: _271  and  _272
REMARK  121  A    between atoms: _275  and  _277
REMARK  122  A    between atoms: _277  and  _278
REMARK  123  A    between atoms: _277  and  _280
REMARK  124  A    between atoms: _283  and  _285
REMARK  125  A    between atoms: _285  and  _286
REMARK  126  A    between atoms: _285  and  _288
REMARK  127  A    between atoms: _288  and  _289
REMARK  128  A    between atoms: _292  and  _294
REMARK  129  A    between atoms: _294  and  _295
REMARK  130  A    between atoms: _294  and  _297
REMARK  131  A    between atoms: _297  and  _298
REMARK  132  A    between atoms: _298  and  _299
REMARK  133  A    between atoms: _301  and  _303
REMARK  134  A    between atoms: _303  and  _304
REMARK  135  A    between atoms: _303  and  _306
REMARK  136  A    between atoms: _306  and  _307
REMARK  137  A    between atoms: _310  and  _312
REMARK  138  A    between atoms: _312  and  _313
REMARK  139  A    between atoms: _315  and  _317
REMARK  140  A    between atoms: _317  and  _318
REMARK  141  A    between atoms: _317  and  _320
REMARK  142  A    between atoms: _320  and  _321
REMARK  143  A    between atoms: _321  and  _322
REMARK  144  A    between atoms: _322  and  _323
REMARK  145  A    between atoms: _332  and  _334
REMARK  146  A    between atoms: _334  and  _335
REMARK  147  A    between atoms: _334  and  _337
REMARK  148  A    between atoms: _337  and  _338
REMARK  149  A    between atoms: _343  and  _344
REMARK  150  A    between atoms: _346  and  _348
REMARK  151  A    between atoms: _348  and  _349
REMARK  152  A    between atoms: _348  and  _351
REMARK  153  A    between atoms: _351  and  _352
REMARK  154  A    between atoms: _358  and  _360
REMARK  155  A    between atoms: _360  and  _361
REMARK  156  A    between atoms: _364  and  _366
REMARK  157  A    between atoms: _366  and  _367
REMARK  158  A    between atoms: _366  and  _369
REMARK  159  A    between atoms: _369  and  _370
REMARK  160  A    between atoms: _375  and  _376
REMARK  161  A    between atoms: _378  and  _380
REMARK  162  A    between atoms: _380  and  _381
REMARK  163  A    between atoms: _380  and  _383
REMARK  164  A    between atoms: _383  and  _384
REMARK  165  A    between atoms: _394  and  _396
REMARK  166  A    between atoms: _396  and  _397
REMARK  167  A    between atoms: _399  and  _401
REMARK  168  A    between atoms: _401  and  _402
REMARK  169  A    between atoms: _401  and  _404
REMARK  170  A    between atoms: _404  and  _405
REMARK  171  A    between atoms: _405  and  _406
REMARK  172  A    between atoms: _409  and  _411
REMARK  173  A    between atoms: _411  and  _412
REMARK  174  A    between atoms: _414  and  _416
REMARK  175  A    between atoms: _416  and  _417
REMARK  176  A    between atoms: _416  and  _419
REMARK  177  A    between atoms: _419  and  _420
REMARK  178  A    between atoms: _422  and  _424
REMARK  179  A    between atoms: _424  and  _425
REMARK  180  A    between atoms: _424  and  _427
REMARK  181  A    between atoms: _427  and  _428
REMARK  182  A    between atoms: _430  and  _432
REMARK  183  A    between atoms: _432  and  _433
REMARK  184  A    between atoms: _436  and  _438
REMARK  185  A    between atoms: _438  and  _439
REMARK  186  A    between atoms: _438  and  _441
REMARK  187  A    between atoms: _441  and  _442
REMARK  188  A    between atoms: _442  and  _443
REMARK  189  A    between atoms: _443  and  _444
REMARK  190  A    between atoms: _453  and  _455
REMARK  191  A    between atoms: _455  and  _456
REMARK  192  A    between atoms: _455  and  _458
REMARK  193  A    between atoms: _458  and  _459
REMARK  194  A    between atoms: _464  and  _466
REMARK  195  A    between atoms: _466  and  _467
REMARK  196  A    between atoms: _466  and  _469
REMARK  197  A    between atoms: _469  and  _470
REMARK  198  A    between atoms: _470  and  _471
REMARK  199  A    between atoms: _471  and  _472
REMARK  200  A    between atoms: _481  and  _483
REMARK  201  A    between atoms: _483  and  _484
REMARK  202  A    between atoms: _483  and  _486
REMARK  203  A    between atoms: _486  and  _487
REMARK  204  A    between atoms: _492  and  _493
REMARK  205  A    between atoms: _495  and  _497
REMARK  206  A    between atoms: _497  and  _498
REMARK  207  A    between atoms: _497  and  _500
REMARK  208  A    between atoms: _500  and  _501
REMARK  209  A    between atoms: _504  and  _506
REMARK  210  A    between atoms: _506  and  _507
REMARK  211  A    between atoms: _506  and  _509
REMARK  212  A    between atoms: _509  and  _510
REMARK  213  A    between atoms: _510  and  _511
REMARK  214  A    between atoms: _514  and  _516
REMARK  215  A    between atoms: _516  and  _517
REMARK  216  A    between atoms: _516  and  _519
REMARK  217  A    between atoms: _519  and  _520
REMARK  218  A    between atoms: _520  and  _521
REMARK  219  A    between atoms: _524  and  _526
REMARK  220  A    between atoms: _526  and  _527
REMARK  221  A    between atoms: _529  and  _531
REMARK  222  A    between atoms: _531  and  _532
REMARK  223  A    between atoms: _531  and  _534
REMARK  224  A    between atoms: _537  and  _539
REMARK  225  A    between atoms: _539  and  _540
REMARK  226  A    between atoms: _539  and  _542
REMARK  227  A    between atoms: _542  and  _543
REMARK  228  A    between atoms: _546  and  _548
REMARK  229  A    between atoms: _548  and  _549
REMARK  230  A    between atoms: _548  and  _551
REMARK  231  A    between atoms: _554  and  _556
REMARK  232  A    between atoms: _556  and  _557
REMARK  233  A    between atoms: _556  and  _559
REMARK  234  A    between atoms: _559  and  _560
REMARK  235  A    between atoms: _560  and  _561
REMARK  236  A    between atoms: _564  and  _566
REMARK  237  A    between atoms: _566  and  _567
REMARK  238  A    between atoms: _566  and  _569
REMARK  239  A    between atoms: _569  and  _570
REMARK  240  A    between atoms: _575  and  _577
REMARK  241  A    between atoms: _577  and  _578
REMARK  242  A    between atoms: _577  and  _580
REMARK  243  A    between atoms: _580  and  _581
REMARK  244  A    between atoms: _584  and  _586
REMARK  245  A    between atoms: _586  and  _587
REMARK  246  A    between atoms: _586  and  _589
REMARK                            x       y       z     vdW  Elec       q    Type
REMARK                         _______ _______ _______ _____ _____    ______ ____
ROOT
ATOM      1  O   HOH     1     -21.244  41.305  44.762  0.00  0.00    +0.000 OA
ENDROOT
TORSDOF 0
REMARK  Name = ../refined-set-2016/1pvn/1pvn_pocket.pdb
REMARK  246 active torsions:
REMARK  status: ('A' for Active; 'I' for Inactive)
REMARK    1  A    between atoms: _1  and  _3
REMARK    2  A    between atoms: _3  and  _4
REMARK    3  A    between atoms: _3  and  _6
REMARK    4  A    between atoms: _9  and  _11
REMARK    5  A    between atoms: _11  and  _12
REMARK    6  A    between atoms: _11  and  _14
REMARK    7  A    between atoms: _14  and  _15
REMARK    8  A    between atoms: _17  and  _19
REMARK    9  A    between atoms: _19  and  _20
REMARK   10  A    between atoms: _23  and  _25
REMARK   11  A    between atoms: _25  and  _26
REMARK   12  A    between atoms: _25  and  _28
REMARK   13  A    between atoms: _28  and  _29
REMARK   14  A    between atoms: _32  and  _34
REMARK   15  A    between atoms: _34  and  _35
REMARK   16  A    between atoms: _34  and  _37
REMARK   17  A    between atoms: _37  and  _38
REMARK   18  A    between atoms: _38  and  _39
REMARK   19  A    between atoms: _41  and  _43
REMARK   20  A    between atoms: _43  and  _44
REMARK   21  A    between atoms: _43  and  _46
REMARK   22  A    between atoms: _46  and  _47
REMARK   23  A    between atoms: _47  and  _48
REMARK   24  A    between atoms: _53  and  _55
REMARK   25  A    between atoms: _55  and  _56
REMARK   26  A    between atoms: _55  and  _58
REMARK   27  A    between atoms: _58  and  _59
REMARK   28  A    between atoms: _61  and  _63
REMARK   29  A    between atoms: _63  and  _64
REMARK   30  A    between atoms: _63  and  _66
REMARK   31  A    between atoms: _69  and  _71
REMARK   32  A    between atoms: _71  and  _72
REMARK   33  A    between atoms: _71  and  _74
REMARK   34  A    between atoms: _74  and  _75
REMARK   35  A    between atoms: _78  and  _80
REMARK   36  A    between atoms: _80  and  _81
REMARK   37  A    between atoms: _80  and  _83
REMARK   38  A    between atoms: _83  and  _84
REMARK   39  A    between atoms: _86  and  _88
REMARK   40  A    between atoms: _88  and  _89
REMARK   41  A    between atoms: _88  and  _91
REMARK   42  A    between atoms: _91  and  _92
REMARK   43  A    between atoms: _94  and  _96
REMARK   44  A    between atoms: _96  and  _97
REMARK   45  A    between atoms: _99  and  _101
REMARK   46  A    between atoms: _101  and  _102
REMARK   47  A    between atoms: _101  and  _104
REMARK   48  A    between atoms: _104  and  _105
REMARK   49  A    between atoms: _110  and  _112
REMARK   50  A    between atoms: _112  and  _113
REMARK   51  A    between atoms: _112  and  _115
REMARK   52  A    between atoms: _115  and  _116
REMARK   53  A    between atoms: _116  and  _117
REMARK   54  A    between atoms: _117  and  _118
REMARK   55  A    between atoms: _118  and  _119
REMARK   56  A    between atoms: _123  and  _125
REMARK   57  A    between atoms: _125  and  _126
REMARK   58  A    between atoms: _125  and  _128
REMARK   59  A    between atoms: _128  and  _129
REMARK   60  A    between atoms: _132  and  _134
REMARK   61  A    between atoms: _134  and  _135
REMARK   62  A    between atoms: _137  and  _139
REMARK   63  A    between atoms: _139  and  _140
REMARK   64  A    between atoms: _139  and  _142
REMARK   65  A    between atoms: _142  and  _143
REMARK   66  A    between atoms: _146  and  _148
REMARK   67  A    between atoms: _148  and  _149
REMARK   68  A    between atoms: _151  and  _153
REMARK   69  A    between atoms: _153  and  _154
REMARK   70  A    between atoms: _156  and  _158
REMARK   71  A    between atoms: _158  and  _159
REMARK   72  A    between atoms: _161  and  _163
REMARK   73  A    between atoms: _163  and  _164
REMARK   74  A    between atoms: _163  and  _166
REMARK   75  A    between atoms: _166  and  _167
REMARK   76  A    between atoms: _169  and  _171
REMARK   77  A    between atoms: _171  and  _172
REMARK   78  A    between atoms: _171  and  _174
REMARK   79  A    between atoms: _174  and  _175
REMARK   80  A    between atoms: _178  and  _180
REMARK   81  A    between atoms: _180  and  _181
REMARK   82  A    between atoms: _180  and  _183
REMARK   83  A    between atoms: _185  and  _187
REMARK   84  A    between atoms: _187  and  _188
REMARK   85  A    between atoms: _187  and  _190
REMARK   86  A    between atoms: _190  and  _191
REMARK   87  A    between atoms: _194  and  _196
REMARK   88  A    between atoms: _196  and  _197
REMARK   89  A    between atoms: _196  and  _199
REMARK   90  A    between atoms: _199  and  _200
REMARK   91  A    between atoms: _203  and  _205
REMARK   92  A    between atoms: _205  and  _206
REMARK   93  A    between atoms: _205  and  _208
REMARK   94  A    between atoms: _208  and  _209
REMARK   95  A    between atoms: _209  and  _210
REMARK   96  A    between atoms: _210  and  _211
REMARK   97  A    between atoms: _220  and  _222
REMARK   98  A    between atoms: _222  and  _223
REMARK   99  A    between atoms: _222  and  _225
REMARK  100  A    between atoms: _225  and  _226
REMARK  101  A    between atoms: _226  and  _227
REMARK  102  A    between atoms: _232  and  _234
REMARK  103  A    between atoms: _234  and  _235
REMARK  104  A    between atoms: _234  and  _237
REMARK  105  A    between atoms: _239  and  _241
REMARK  106  A    between atoms: _241  and  _242
REMARK  107  A    between atoms: _241  and  _244
REMARK  108  A    between atoms: _244  and  _245
REMARK  109  A    between atoms: _247  and  _249
REMARK  110  A    between atoms: _249  and  _250
REMARK  111  A    between atoms: _249  and  _252
REMARK  112  A    between atoms: _252  and  _253
REMARK  113  A    between atoms: _256  and  _258
REMARK  114  A    between atoms: _258  and  _259
REMARK  115  A    between atoms: _261  and  _263
REMARK  116  A    between atoms: _263  and  _264
REMARK  117  A    between atoms: _266  and  _268
REMARK  118  A    between atoms: _268  and  _269
REMARK  119  A    between atoms: _268  and  _271
REMARK  120  A    between atoms: _271  and  _272
REMARK  121  A    between atoms: _275  and  _277
REMARK  122  A    between atoms: _277  and  _278
REMARK  123  A    between atoms: _277  and  _280
REMARK  124  A    between atoms: _283  and  _285
REMARK  125  A    between atoms: _285  and  _286
REMARK  126  A    between atoms: _285  and  _288
REMARK  127  A    between atoms: _288  and  _289
REMARK  128  A    between atoms: _292  and  _294
REMARK  129  A    between atoms: _294  and  _295
REMARK  130  A    between atoms: _294  and  _297
REMARK  131  A    between atoms: _297  and  _298
REMARK  132  A    between atoms: _298  and  _299
REMARK  133  A    between atoms: _301  and  _303
REMARK  134  A    between atoms: _303  and  _304
REMARK  135  A    between atoms: _303  and  _306
REMARK  136  A    between atoms: _306  and  _307
REMARK  137  A    between atoms: _310  and  _312
REMARK  138  A    between atoms: _312  and  _313
REMARK  139  A    between atoms: _315  and  _317
REMARK  140  A    between atoms: _317  and  _318
REMARK  141  A    between atoms: _317  and  _320
REMARK  142  A    between atoms: _320  and  _321
REMARK  143  A    between atoms: _321  and  _322
REMARK  144  A    between atoms: _322  and  _323
REMARK  145  A    between atoms: _332  and  _334
REMARK  146  A    between atoms: _334  and  _335
REMARK  147  A    between atoms: _334  and  _337
REMARK  148  A    between atoms: _337  and  _338
REMARK  149  A    between atoms: _343  and  _344
REMARK  150  A    between atoms: _346  and  _348
REMARK  151  A    between atoms: _348  and  _349
REMARK  152  A    between atoms: _348  and  _351
REMARK  153  A    between atoms: _351  and  _352
REMARK  154  A    between atoms: _358  and  _360
REMARK  155  A    between atoms: _360  and  _361
REMARK  156  A    between atoms: _364  and  _366
REMARK  157  A    between atoms: _366  and  _367
REMARK  158  A    between atoms: _366  and  _369
REMARK  159  A    between atoms: _369  and  _370
REMARK  160  A    between atoms: _375  and  _376
REMARK  161  A    between atoms: _378  and  _380
REMARK  162  A    between atoms: _380  and  _381
REMARK  163  A    between atoms: _380  and  _383
REMARK  164  A    between atoms: _383  and  _384
REMARK  165  A    between atoms: _394  and  _396
REMARK  166  A    between atoms: _396  and  _397
REMARK  167  A    between atoms: _399  and  _401
REMARK  168  A    between atoms: _401  and  _402
REMARK  169  A    between atoms: _401  and  _404
REMARK  170  A    between atoms: _404  and  _405
REMARK  171  A    between atoms: _405  and  _406
REMARK  172  A    between atoms: _409  and  _411
REMARK  173  A    between atoms: _411  and  _412
REMARK  174  A    between atoms: _414  and  _416
REMARK  175  A    between atoms: _416  and  _417
REMARK  176  A    between atoms: _416  and  _419
REMARK  177  A    between atoms: _419  and  _420
REMARK  178  A    between atoms: _422  and  _424
REMARK  179  A    between atoms: _424  and  _425
REMARK  180  A    between atoms: _424  and  _427
REMARK  181  A    between atoms: _427  and  _428
REMARK  182  A    between atoms: _430  and  _432
REMARK  183  A    between atoms: _432  and  _433
REMARK  184  A    between atoms: _436  and  _438
REMARK  185  A    between atoms: _438  and  _439
REMARK  186  A    between atoms: _438  and  _441
REMARK  187  A    between atoms: _441  and  _442
REMARK  188  A    between atoms: _442  and  _443
REMARK  189  A    between atoms: _443  and  _444
REMARK  190  A    between atoms: _453  and  _455
REMARK  191  A    between atoms: _455  and  _456
REMARK  192  A    between atoms: _455  and  _458
REMARK  193  A    between atoms: _458  and  _459
REMARK  194  A    between atoms: _464  and  _466
REMARK  195  A    between atoms: _466  and  _467
REMARK  196  A    between atoms: _466  and  _469
REMARK  197  A    between atoms: _469  and  _470
REMARK  198  A    between atoms: _470  and  _471
REMARK  199  A    between atoms: _471  and  _472
REMARK  200  A    between atoms: _481  and  _483
REMARK  201  A    between atoms: _483  and  _484
REMARK  202  A    between atoms: _483  and  _486
REMARK  203  A    between atoms: _486  and  _487
REMARK  204  A    between atoms: _492  and  _493
REMARK  205  A    between atoms: _495  and  _497
REMARK  206  A    between atoms: _497  and  _498
REMARK  207  A    between atoms: _497  and  _500
REMARK  208  A    between atoms: _500  and  _501
REMARK  209  A    between atoms: _504  and  _506
REMARK  210  A    between atoms: _506  and  _507
REMARK  211  A    between atoms: _506  and  _509
REMARK  212  A    between atoms: _509  and  _510
REMARK  213  A    between atoms: _510  and  _511
REMARK  214  A    between atoms: _514  and  _516
REMARK  215  A    between atoms: _516  and  _517
REMARK  216  A    between atoms: _516  and  _519
REMARK  217  A    between atoms: _519  and  _520
REMARK  218  A    between atoms: _520  and  _521
REMARK  219  A    between atoms: _524  and  _526
REMARK  220  A    between atoms: _526  and  _527
REMARK  221  A    between atoms: _529  and  _531
REMARK  222  A    between atoms: _531  and  _532
REMARK  223  A    between atoms: _531  and  _534
REMARK  224  A    between atoms: _537  and  _539
REMARK  225  A    between atoms: _539  and  _540
REMARK  226  A    between atoms: _539  and  _542
REMARK  227  A    between atoms: _542  and  _543
REMARK  228  A    between atoms: _546  and  _548
REMARK  229  A    between atoms: _548  and  _549
REMARK  230  A    between atoms: _548  and  _551
REMARK  231  A    between atoms: _554  and  _556
REMARK  232  A    between atoms: _556  and  _557
REMARK  233  A    between atoms: _556  and  _559
REMARK  234  A    between atoms: _559  and  _560
REMARK  235  A    between atoms: _560  and  _561
REMARK  236  A    between atoms: _564  and  _566
REMARK  237  A    between atoms: _566  and  _567
REMARK  238  A    between atoms: _566  and  _569
REMARK  239  A    between atoms: _569  and  _570
REMARK  240  A    between atoms: _575  and  _577
REMARK  241  A    between atoms: _577  and  _578
REMARK  242  A    between atoms: _577  and  _580
REMARK  243  A    between atoms: _580  and  _581
REMARK  244  A    between atoms: _584  and  _586
REMARK  245  A    between atoms: _586  and  _587
REMARK  246  A    between atoms: _586  and  _589
REMARK                            x       y       z     vdW  Elec       q    Type
REMARK                         _______ _______ _______ _____ _____    ______ ____
ROOT
ATOM      1  O   HOH     1     -17.739  34.242  48.705  0.00  0.00    +0.000 OA
ENDROOT
TORSDOF 0
REMARK  Name = ../refined-set-2016/1pvn/1pvn_pocket.pdb
REMARK  246 active torsions:
REMARK  status: ('A' for Active; 'I' for Inactive)
REMARK    1  A    between atoms: _1  and  _3
REMARK    2  A    between atoms: _3  and  _4
REMARK    3  A    between atoms: _3  and  _6
REMARK    4  A    between atoms: _9  and  _11
REMARK    5  A    between atoms: _11  and  _12
REMARK    6  A    between atoms: _11  and  _14
REMARK    7  A    between atoms: _14  and  _15
REMARK    8  A    between atoms: _17  and  _19
REMARK    9  A    between atoms: _19  and  _20
REMARK   10  A    between atoms: _23  and  _25
REMARK   11  A    between atoms: _25  and  _26
REMARK   12  A    between atoms: _25  and  _28
REMARK   13  A    between atoms: _28  and  _29
REMARK   14  A    between atoms: _32  and  _34
REMARK   15  A    between atoms: _34  and  _35
REMARK   16  A    between atoms: _34  and  _37
REMARK   17  A    between atoms: _37  and  _38
REMARK   18  A    between atoms: _38  and  _39
REMARK   19  A    between atoms: _41  and  _43
REMARK   20  A    between atoms: _43  and  _44
REMARK   21  A    between atoms: _43  and  _46
REMARK   22  A    between atoms: _46  and  _47
REMARK   23  A    between atoms: _47  and  _48
REMARK   24  A    between atoms: _53  and  _55
REMARK   25  A    between atoms: _55  and  _56
REMARK   26  A    between atoms: _55  and  _58
REMARK   27  A    between atoms: _58  and  _59
REMARK   28  A    between atoms: _61  and  _63
REMARK   29  A    between atoms: _63  and  _64
REMARK   30  A    between atoms: _63  and  _66
REMARK   31  A    between atoms: _69  and  _71
REMARK   32  A    between atoms: _71  and  _72
REMARK   33  A    between atoms: _71  and  _74
REMARK   34  A    between atoms: _74  and  _75
REMARK   35  A    between atoms: _78  and  _80
REMARK   36  A    between atoms: _80  and  _81
REMARK   37  A    between atoms: _80  and  _83
REMARK   38  A    between atoms: _83  and  _84
REMARK   39  A    between atoms: _86  and  _88
REMARK   40  A    between atoms: _88  and  _89
REMARK   41  A    between atoms: _88  and  _91
REMARK   42  A    between atoms: _91  and  _92
REMARK   43  A    between atoms: _94  and  _96
REMARK   44  A    between atoms: _96  and  _97
REMARK   45  A    between atoms: _99  and  _101
REMARK   46  A    between atoms: _101  and  _102
REMARK   47  A    between atoms: _101  and  _104
REMARK   48  A    between atoms: _104  and  _105
REMARK   49  A    between atoms: _110  and  _112
REMARK   50  A    between atoms: _112  and  _113
REMARK   51  A    between atoms: _112  and  _115
REMARK   52  A    between atoms: _115  and  _116
REMARK   53  A    between atoms: _116  and  _117
REMARK   54  A    between atoms: _117  and  _118
REMARK   55  A    between atoms: _118  and  _119
REMARK   56  A    between atoms: _123  and  _125
REMARK   57  A    between atoms: _125  and  _126
REMARK   58  A    between atoms: _125  and  _128
REMARK   59  A    between atoms: _128  and  _129
REMARK   60  A    between atoms: _132  and  _134
REMARK   61  A    between atoms: _134  and  _135
REMARK   62  A    between atoms: _137  and  _139
REMARK   63  A    between atoms: _139  and  _140
REMARK   64  A    between atoms: _139  and  _142
REMARK   65  A    between atoms: _142  and  _143
REMARK   66  A    between atoms: _146  and  _148
REMARK   67  A    between atoms: _148  and  _149
REMARK   68  A    between atoms: _151  and  _153
REMARK   69  A    between atoms: _153  and  _154
REMARK   70  A    between atoms: _156  and  _158
REMARK   71  A    between atoms: _158  and  _159
REMARK   72  A    between atoms: _161  and  _163
REMARK   73  A    between atoms: _163  and  _164
REMARK   74  A    between atoms: _163  and  _166
REMARK   75  A    between atoms: _166  and  _167
REMARK   76  A    between atoms: _169  and  _171
REMARK   77  A    between atoms: _171  and  _172
REMARK   78  A    between atoms: _171  and  _174
REMARK   79  A    between atoms: _174  and  _175
REMARK   80  A    between atoms: _178  and  _180
REMARK   81  A    between atoms: _180  and  _181
REMARK   82  A    between atoms: _180  and  _183
REMARK   83  A    between atoms: _185  and  _187
REMARK   84  A    between atoms: _187  and  _188
REMARK   85  A    between atoms: _187  and  _190
REMARK   86  A    between atoms: _190  and  _191
REMARK   87  A    between atoms: _194  and  _196
REMARK   88  A    between atoms: _196  and  _197
REMARK   89  A    between atoms: _196  and  _199
REMARK   90  A    between atoms: _199  and  _200
REMARK   91  A    between atoms: _203  and  _205
REMARK   92  A    between atoms: _205  and  _206
REMARK   93  A    between atoms: _205  and  _208
REMARK   94  A    between atoms: _208  and  _209
REMARK   95  A    between atoms: _209  and  _210
REMARK   96  A    between atoms: _210  and  _211
REMARK   97  A    between atoms: _220  and  _222
REMARK   98  A    between atoms: _222  and  _223
REMARK   99  A    between atoms: _222  and  _225
REMARK  100  A    between atoms: _225  and  _226
REMARK  101  A    between atoms: _226  and  _227
REMARK  102  A    between atoms: _232  and  _234
REMARK  103  A    between atoms: _234  and  _235
REMARK  104  A    between atoms: _234  and  _237
REMARK  105  A    between atoms: _239  and  _241
REMARK  106  A    between atoms: _241  and  _242
REMARK  107  A    between atoms: _241  and  _244
REMARK  108  A    between atoms: _244  and  _245
REMARK  109  A    between atoms: _247  and  _249
REMARK  110  A    between atoms: _249  and  _250
REMARK  111  A    between atoms: _249  and  _252
REMARK  112  A    between atoms: _252  and  _253
REMARK  113  A    between atoms: _256  and  _258
REMARK  114  A    between atoms: _258  and  _259
REMARK  115  A    between atoms: _261  and  _263
REMARK  116  A    between atoms: _263  and  _264
REMARK  117  A    between atoms: _266  and  _268
REMARK  118  A    between atoms: _268  and  _269
REMARK  119  A    between atoms: _268  and  _271
REMARK  120  A    between atoms: _271  and  _272
REMARK  121  A    between atoms: _275  and  _277
REMARK  122  A    between atoms: _277  and  _278
REMARK  123  A    between atoms: _277  and  _280
REMARK  124  A    between atoms: _283  and  _285
REMARK  125  A    between atoms: _285  and  _286
REMARK  126  A    between atoms: _285  and  _288
REMARK  127  A    between atoms: _288  and  _289
REMARK  128  A    between atoms: _292  and  _294
REMARK  129  A    between atoms: _294  and  _295
REMARK  130  A    between atoms: _294  and  _297
REMARK  131  A    between atoms: _297  and  _298
REMARK  132  A    between atoms: _298  and  _299
REMARK  133  A    between atoms: _301  and  _303
REMARK  134  A    between atoms: _303  and  _304
REMARK  135  A    between atoms: _303  and  _306
REMARK  136  A    between atoms: _306  and  _307
REMARK  137  A    between atoms: _310  and  _312
REMARK  138  A    between atoms: _312  and  _313
REMARK  139  A    between atoms: _315  and  _317
REMARK  140  A    between atoms: _317  and  _318
REMARK  141  A    between atoms: _317  and  _320
REMARK  142  A    between atoms: _320  and  _321
REMARK  143  A    between atoms: _321  and  _322
REMARK  144  A    between atoms: _322  and  _323
REMARK  145  A    between atoms: _332  and  _334
REMARK  146  A    between atoms: _334  and  _335
REMARK  147  A    between atoms: _334  and  _337
REMARK  148  A    between atoms: _337  and  _338
REMARK  149  A    between atoms: _343  and  _344
REMARK  150  A    between atoms: _346  and  _348
REMARK  151  A    between atoms: _348  and  _349
REMARK  152  A    between atoms: _348  and  _351
REMARK  153  A    between atoms: _351  and  _352
REMARK  154  A    between atoms: _358  and  _360
REMARK  155  A    between atoms: _360  and  _361
REMARK  156  A    between atoms: _364  and  _366
REMARK  157  A    between atoms: _366  and  _367
REMARK  158  A    between atoms: _366  and  _369
REMARK  159  A    between atoms: _369  and  _370
REMARK  160  A    between atoms: _375  and  _376
REMARK  161  A    between atoms: _378  and  _380
REMARK  162  A    between atoms: _380  and  _381
REMARK  163  A    between atoms: _380  and  _383
REMARK  164  A    between atoms: _383  and  _384
REMARK  165  A    between atoms: _394  and  _396
REMARK  166  A    between atoms: _396  and  _397
REMARK  167  A    between atoms: _399  and  _401
REMARK  168  A    between atoms: _401  and  _402
REMARK  169  A    between atoms: _401  and  _404
REMARK  170  A    between atoms: _404  and  _405
REMARK  171  A    between atoms: _405  and  _406
REMARK  172  A    between atoms: _409  and  _411
REMARK  173  A    between atoms: _411  and  _412
REMARK  174  A    between atoms: _414  and  _416
REMARK  175  A    between atoms: _416  and  _417
REMARK  176  A    between atoms: _416  and  _419
REMARK  177  A    between atoms: _419  and  _420
REMARK  178  A    between atoms: _422  and  _424
REMARK  179  A    between atoms: _424  and  _425
REMARK  180  A    between atoms: _424  and  _427
REMARK  181  A    between atoms: _427  and  _428
REMARK  182  A    between atoms: _430  and  _432
REMARK  183  A    between atoms: _432  and  _433
REMARK  184  A    between atoms: _436  and  _438
REMARK  185  A    between atoms: _438  and  _439
REMARK  186  A    between atoms: _438  and  _441
REMARK  187  A    between atoms: _441  and  _442
REMARK  188  A    between atoms: _442  and  _443
REMARK  189  A    between atoms: _443  and  _444
REMARK  190  A    between atoms: _453  and  _455
REMARK  191  A    between atoms: _455  and  _456
REMARK  192  A    between atoms: _455  and  _458
REMARK  193  A    between atoms: _458  and  _459
REMARK  194  A    between atoms: _464  and  _466
REMARK  195  A    between atoms: _466  and  _467
REMARK  196  A    between atoms: _466  and  _469
REMARK  197  A    between atoms: _469  and  _470
REMARK  198  A    between atoms: _470  and  _471
REMARK  199  A    between atoms: _471  and  _472
REMARK  200  A    between atoms: _481  and  _483
REMARK  201  A    between atoms: _483  and  _484
REMARK  202  A    between atoms: _483  and  _486
REMARK  203  A    between atoms: _486  and  _487
REMARK  204  A    between atoms: _492  and  _493
REMARK  205  A    between atoms: _495  and  _497
REMARK  206  A    between atoms: _497  and  _498
REMARK  207  A    between atoms: _497  and  _500
REMARK  208  A    between atoms: _500  and  _501
REMARK  209  A    between atoms: _504  and  _506
REMARK  210  A    between atoms: _506  and  _507
REMARK  211  A    between atoms: _506  and  _509
REMARK  212  A    between atoms: _509  and  _510
REMARK  213  A    between atoms: _510  and  _511
REMARK  214  A    between atoms: _514  and  _516
REMARK  215  A    between atoms: _516  and  _517
REMARK  216  A    between atoms: _516  and  _519
REMARK  217  A    between atoms: _519  and  _520
REMARK  218  A    between atoms: _520  and  _521
REMARK  219  A    between atoms: _524  and  _526
REMARK  220  A    between atoms: _526  and  _527
REMARK  221  A    between atoms: _529  and  _531
REMARK  222  A    between atoms: _531  and  _532
REMARK  223  A    between atoms: _531  and  _534
REMARK  224  A    between atoms: _537  and  _539
REMARK  225  A    between atoms: _539  and  _540
REMARK  226  A    between atoms: _539  and  _542
REMARK  227  A    between atoms: _542  and  _543
REMARK  228  A    between atoms: _546  and  _548
REMARK  229  A    between atoms: _548  and  _549
REMARK  230  A    between atoms: _548  and  _551
REMARK  231  A    between atoms: _554  and  _556
REMARK  232  A    between atoms: _556  and  _557
REMARK  233  A    between atoms: _556  and  _559
REMARK  234  A    between atoms: _559  and  _560
REMARK  235  A    between atoms: _560  and  _561
REMARK  236  A    between atoms: _564  and  _566
REMARK  237  A    between atoms: _566  and  _567
REMARK  238  A    between atoms: _566  and  _569
REMARK  239  A    between atoms: _569  and  _570
REMARK  240  A    between atoms: _575  and  _577
REMARK  241  A    between atoms: _577  and  _578
REMARK  242  A    between atoms: _577  and  _580
REMARK  243  A    between atoms: _580  and  _581
REMARK  244  A    between atoms: _584  and  _586
REMARK  245  A    between atoms: _586  and  _587
REMARK  246  A    between atoms: _586  and  _589
REMARK                            x       y       z     vdW  Elec       q    Type
REMARK                         _______ _______ _______ _____ _____    ______ ____
ROOT
ATOM      1  O   HOH     1     -29.119  37.863  48.320  0.00  0.00    +0.000 OA
ENDROOT
TORSDOF 0
REMARK  Name = ../refined-set-2016/1pvn/1pvn_pocket.pdb
REMARK  246 active torsions:
REMARK  status: ('A' for Active; 'I' for Inactive)
REMARK    1  A    between atoms: _1  and  _3
REMARK    2  A    between atoms: _3  and  _4
REMARK    3  A    between atoms: _3  and  _6
REMARK    4  A    between atoms: _9  and  _11
REMARK    5  A    between atoms: _11  and  _12
REMARK    6  A    between atoms: _11  and  _14
REMARK    7  A    between atoms: _14  and  _15
REMARK    8  A    between atoms: _17  and  _19
REMARK    9  A    between atoms: _19  and  _20
REMARK   10  A    between atoms: _23  and  _25
REMARK   11  A    between atoms: _25  and  _26
REMARK   12  A    between atoms: _25  and  _28
REMARK   13  A    between atoms: _28  and  _29
REMARK   14  A    between atoms: _32  and  _34
REMARK   15  A    between atoms: _34  and  _35
REMARK   16  A    between atoms: _34  and  _37
REMARK   17  A    between atoms: _37  and  _38
REMARK   18  A    between atoms: _38  and  _39
REMARK   19  A    between atoms: _41  and  _43
REMARK   20  A    between atoms: _43  and  _44
REMARK   21  A    between atoms: _43  and  _46
REMARK   22  A    between atoms: _46  and  _47
REMARK   23  A    between atoms: _47  and  _48
REMARK   24  A    between atoms: _53  and  _55
REMARK   25  A    between atoms: _55  and  _56
REMARK   26  A    between atoms: _55  and  _58
REMARK   27  A    between atoms: _58  and  _59
REMARK   28  A    between atoms: _61  and  _63
REMARK   29  A    between atoms: _63  and  _64
REMARK   30  A    between atoms: _63  and  _66
REMARK   31  A    between atoms: _69  and  _71
REMARK   32  A    between atoms: _71  and  _72
REMARK   33  A    between atoms: _71  and  _74
REMARK   34  A    between atoms: _74  and  _75
REMARK   35  A    between atoms: _78  and  _80
REMARK   36  A    between atoms: _80  and  _81
REMARK   37  A    between atoms: _80  and  _83
REMARK   38  A    between atoms: _83  and  _84
REMARK   39  A    between atoms: _86  and  _88
REMARK   40  A    between atoms: _88  and  _89
REMARK   41  A    between atoms: _88  and  _91
REMARK   42  A    between atoms: _91  and  _92
REMARK   43  A    between atoms: _94  and  _96
REMARK   44  A    between atoms: _96  and  _97
REMARK   45  A    between atoms: _99  and  _101
REMARK   46  A    between atoms: _101  and  _102
REMARK   47  A    between atoms: _101  and  _104
REMARK   48  A    between atoms: _104  and  _105
REMARK   49  A    between atoms: _110  and  _112
REMARK   50  A    between atoms: _112  and  _113
REMARK   51  A    between atoms: _112  and  _115
REMARK   52  A    between atoms: _115  and  _116
REMARK   53  A    between atoms: _116  and  _117
REMARK   54  A    between atoms: _117  and  _118
REMARK   55  A    between atoms: _118  and  _119
REMARK   56  A    between atoms: _123  and  _125
REMARK   57  A    between atoms: _125  and  _126
REMARK   58  A    between atoms: _125  and  _128
REMARK   59  A    between atoms: _128  and  _129
REMARK   60  A    between atoms: _132  and  _134
REMARK   61  A    between atoms: _134  and  _135
REMARK   62  A    between atoms: _137  and  _139
REMARK   63  A    between atoms: _139  and  _140
REMARK   64  A    between atoms: _139  and  _142
REMARK   65  A    between atoms: _142  and  _143
REMARK   66  A    between atoms: _146  and  _148
REMARK   67  A    between atoms: _148  and  _149
REMARK   68  A    between atoms: _151  and  _153
REMARK   69  A    between atoms: _153  and  _154
REMARK   70  A    between atoms: _156  and  _158
REMARK   71  A    between atoms: _158  and  _159
REMARK   72  A    between atoms: _161  and  _163
REMARK   73  A    between atoms: _163  and  _164
REMARK   74  A    between atoms: _163  and  _166
REMARK   75  A    between atoms: _166  and  _167
REMARK   76  A    between atoms: _169  and  _171
REMARK   77  A    between atoms: _171  and  _172
REMARK   78  A    between atoms: _171  and  _174
REMARK   79  A    between atoms: _174  and  _175
REMARK   80  A    between atoms: _178  and  _180
REMARK   81  A    between atoms: _180  and  _181
REMARK   82  A    between atoms: _180  and  _183
REMARK   83  A    between atoms: _185  and  _187
REMARK   84  A    between atoms: _187  and  _188
REMARK   85  A    between atoms: _187  and  _190
REMARK   86  A    between atoms: _190  and  _191
REMARK   87  A    between atoms: _194  and  _196
REMARK   88  A    between atoms: _196  and  _197
REMARK   89  A    between atoms: _196  and  _199
REMARK   90  A    between atoms: _199  and  _200
REMARK   91  A    between atoms: _203  and  _205
REMARK   92  A    between atoms: _205  and  _206
REMARK   93  A    between atoms: _205  and  _208
REMARK   94  A    between atoms: _208  and  _209
REMARK   95  A    between atoms: _209  and  _210
REMARK   96  A    between atoms: _210  and  _211
REMARK   97  A    between atoms: _220  and  _222
REMARK   98  A    between atoms: _222  and  _223
REMARK   99  A    between atoms: _222  and  _225
REMARK  100  A    between atoms: _225  and  _226
REMARK  101  A    between atoms: _226  and  _227
REMARK  102  A    between atoms: _232  and  _234
REMARK  103  A    between atoms: _234  and  _235
REMARK  104  A    between atoms: _234  and  _237
REMARK  105  A    between atoms: _239  and  _241
REMARK  106  A    between atoms: _241  and  _242
REMARK  107  A    between atoms: _241  and  _244
REMARK  108  A    between atoms: _244  and  _245
REMARK  109  A    between atoms: _247  and  _249
REMARK  110  A    between atoms: _249  and  _250
REMARK  111  A    between atoms: _249  and  _252
REMARK  112  A    between atoms: _252  and  _253
REMARK  113  A    between atoms: _256  and  _258
REMARK  114  A    between atoms: _258  and  _259
REMARK  115  A    between atoms: _261  and  _263
REMARK  116  A    between atoms: _263  and  _264
REMARK  117  A    between atoms: _266  and  _268
REMARK  118  A    between atoms: _268  and  _269
REMARK  119  A    between atoms: _268  and  _271
REMARK  120  A    between atoms: _271  and  _272
REMARK  121  A    between atoms: _275  and  _277
REMARK  122  A    between atoms: _277  and  _278
REMARK  123  A    between atoms: _277  and  _280
REMARK  124  A    between atoms: _283  and  _285
REMARK  125  A    between atoms: _285  and  _286
REMARK  126  A    between atoms: _285  and  _288
REMARK  127  A    between atoms: _288  and  _289
REMARK  128  A    between atoms: _292  and  _294
REMARK  129  A    between atoms: _294  and  _295
REMARK  130  A    between atoms: _294  and  _297
REMARK  131  A    between atoms: _297  and  _298
REMARK  132  A    between atoms: _298  and  _299
REMARK  133  A    between atoms: _301  and  _303
REMARK  134  A    between atoms: _303  and  _304
REMARK  135  A    between atoms: _303  and  _306
REMARK  136  A    between atoms: _306  and  _307
REMARK  137  A    between atoms: _310  and  _312
REMARK  138  A    between atoms: _312  and  _313
REMARK  139  A    between atoms: _315  and  _317
REMARK  140  A    between atoms: _317  and  _318
REMARK  141  A    between atoms: _317  and  _320
REMARK  142  A    between atoms: _320  and  _321
REMARK  143  A    between atoms: _321  and  _322
REMARK  144  A    between atoms: _322  and  _323
REMARK  145  A    between atoms: _332  and  _334
REMARK  146  A    between atoms: _334  and  _335
REMARK  147  A    between atoms: _334  and  _337
REMARK  148  A    between atoms: _337  and  _338
REMARK  149  A    between atoms: _343  and  _344
REMARK  150  A    between atoms: _346  and  _348
REMARK  151  A    between atoms: _348  and  _349
REMARK  152  A    between atoms: _348  and  _351
REMARK  153  A    between atoms: _351  and  _352
REMARK  154  A    between atoms: _358  and  _360
REMARK  155  A    between atoms: _360  and  _361
REMARK  156  A    between atoms: _364  and  _366
REMARK  157  A    between atoms: _366  and  _367
REMARK  158  A    between atoms: _366  and  _369
REMARK  159  A    between atoms: _369  and  _370
REMARK  160  A    between atoms: _375  and  _376
REMARK  161  A    between atoms: _378  and  _380
REMARK  162  A    between atoms: _380  and  _381
REMARK  163  A    between atoms: _380  and  _383
REMARK  164  A    between atoms: _383  and  _384
REMARK  165  A    between atoms: _394  and  _396
REMARK  166  A    between atoms: _396  and  _397
REMARK  167  A    between atoms: _399  and  _401
REMARK  168  A    between atoms: _401  and  _402
REMARK  169  A    between atoms: _401  and  _404
REMARK  170  A    between atoms: _404  and  _405
REMARK  171  A    between atoms: _405  and  _406
REMARK  172  A    between atoms: _409  and  _411
REMARK  173  A    between atoms: _411  and  _412
REMARK  174  A    between atoms: _414  and  _416
REMARK  175  A    between atoms: _416  and  _417
REMARK  176  A    between atoms: _416  and  _419
REMARK  177  A    between atoms: _419  and  _420
REMARK  178  A    between atoms: _422  and  _424
REMARK  179  A    between atoms: _424  and  _425
REMARK  180  A    between atoms: _424  and  _427
REMARK  181  A    between atoms: _427  and  _428
REMARK  182  A    between atoms: _430  and  _432
REMARK  183  A    between atoms: _432  and  _433
REMARK  184  A    between atoms: _436  and  _438
REMARK  185  A    between atoms: _438  and  _439
REMARK  186  A    between atoms: _438  and  _441
REMARK  187  A    between atoms: _441  and  _442
REMARK  188  A    between atoms: _442  and  _443
REMARK  189  A    between atoms: _443  and  _444
REMARK  190  A    between atoms: _453  and  _455
REMARK  191  A    between atoms: _455  and  _456
REMARK  192  A    between atoms: _455  and  _458
REMARK  193  A    between atoms: _458  and  _459
REMARK  194  A    between atoms: _464  and  _466
REMARK  195  A    between atoms: _466  and  _467
REMARK  196  A    between atoms: _466  and  _469
REMARK  197  A    between atoms: _469  and  _470
REMARK  198  A    between atoms: _470  and  _471
REMARK  199  A    between atoms: _471  and  _472
REMARK  200  A    between atoms: _481  and  _483
REMARK  201  A    between atoms: _483  and  _484
REMARK  202  A    between atoms: _483  and  _486
REMARK  203  A    between atoms: _486  and  _487
REMARK  204  A    between atoms: _492  and  _493
REMARK  205  A    between atoms: _495  and  _497
REMARK  206  A    between atoms: _497  and  _498
REMARK  207  A    between atoms: _497  and  _500
REMARK  208  A    between atoms: _500  and  _501
REMARK  209  A    between atoms: _504  and  _506
REMARK  210  A    between atoms: _506  and  _507
REMARK  211  A    between atoms: _506  and  _509
REMARK  212  A    between atoms: _509  and  _510
REMARK  213  A    between atoms: _510  and  _511
REMARK  214  A    between atoms: _514  and  _516
REMARK  215  A    between atoms: _516  and  _517
REMARK  216  A    between atoms: _516  and  _519
REMARK  217  A    between atoms: _519  and  _520
REMARK  218  A    between atoms: _520  and  _521
REMARK  219  A    between atoms: _524  and  _526
REMARK  220  A    between atoms: _526  and  _527
REMARK  221  A    between atoms: _529  and  _531
REMARK  222  A    between atoms: _531  and  _532
REMARK  223  A    between atoms: _531  and  _534
REMARK  224  A    between atoms: _537  and  _539
REMARK  225  A    between atoms: _539  and  _540
REMARK  226  A    between atoms: _539  and  _542
REMARK  227  A    between atoms: _542  and  _543
REMARK  228  A    between atoms: _546  and  _548
REMARK  229  A    between atoms: _548  and  _549
REMARK  230  A    between atoms: _548  and  _551
REMARK  231  A    between atoms: _554  and  _556
REMARK  232  A    between atoms: _556  and  _557
REMARK  233  A    between atoms: _556  and  _559
REMARK  234  A    between atoms: _559  and  _560
REMARK  235  A    between atoms: _560  and  _561
REMARK  236  A    between atoms: _564  and  _566
REMARK  237  A    between atoms: _566  and  _567
REMARK  238  A    between atoms: _566  and  _569
REMARK  239  A    between atoms: _569  and  _570
REMARK  240  A    between atoms: _575  and  _577
REMARK  241  A    between atoms: _577  and  _578
REMARK  242  A    between atoms: _577  and  _580
REMARK  243  A    between atoms: _580  and  _581
REMARK  244  A    between atoms: _584  and  _586
REMARK  245  A    between atoms: _586  and  _587
REMARK  246  A    between atoms: _586  and  _589
REMARK                            x       y       z     vdW  Elec       q    Type
REMARK                         _______ _______ _______ _____ _____    ______ ____
ROOT
ATOM      1  O   HOH     1     -27.422  40.920  36.300  0.00  0.00    +0.000 OA
ENDROOT
TORSDOF 0
REMARK  Name = ../refined-set-2016/1pvn/1pvn_pocket.pdb
REMARK  246 active torsions:
REMARK  status: ('A' for Active; 'I' for Inactive)
REMARK    1  A    between atoms: _1  and  _3
REMARK    2  A    between atoms: _3  and  _4
REMARK    3  A    between atoms: _3  and  _6
REMARK    4  A    between atoms: _9  and  _11
REMARK    5  A    between atoms: _11  and  _12
REMARK    6  A    between atoms: _11  and  _14
REMARK    7  A    between atoms: _14  and  _15
REMARK    8  A    between atoms: _17  and  _19
REMARK    9  A    between atoms: _19  and  _20
REMARK   10  A    between atoms: _23  and  _25
REMARK   11  A    between atoms: _25  and  _26
REMARK   12  A    between atoms: _25  and  _28
REMARK   13  A    between atoms: _28  and  _29
REMARK   14  A    between atoms: _32  and  _34
REMARK   15  A    between atoms: _34  and  _35
REMARK   16  A    between atoms: _34  and  _37
REMARK   17  A    between atoms: _37  and  _38
REMARK   18  A    between atoms: _38  and  _39
REMARK   19  A    between atoms: _41  and  _43
REMARK   20  A    between atoms: _43  and  _44
REMARK   21  A    between atoms: _43  and  _46
REMARK   22  A    between atoms: _46  and  _47
REMARK   23  A    between atoms: _47  and  _48
REMARK   24  A    between atoms: _53  and  _55
REMARK   25  A    between atoms: _55  and  _56
REMARK   26  A    between atoms: _55  and  _58
REMARK   27  A    between atoms: _58  and  _59
REMARK   28  A    between atoms: _61  and  _63
REMARK   29  A    between atoms: _63  and  _64
REMARK   30  A    between atoms: _63  and  _66
REMARK   31  A    between atoms: _69  and  _71
REMARK   32  A    between atoms: _71  and  _72
REMARK   33  A    between atoms: _71  and  _74
REMARK   34  A    between atoms: _74  and  _75
REMARK   35  A    between atoms: _78  and  _80
REMARK   36  A    between atoms: _80  and  _81
REMARK   37  A    between atoms: _80  and  _83
REMARK   38  A    between atoms: _83  and  _84
REMARK   39  A    between atoms: _86  and  _88
REMARK   40  A    between atoms: _88  and  _89
REMARK   41  A    between atoms: _88  and  _91
REMARK   42  A    between atoms: _91  and  _92
REMARK   43  A    between atoms: _94  and  _96
REMARK   44  A    between atoms: _96  and  _97
REMARK   45  A    between atoms: _99  and  _101
REMARK   46  A    between atoms: _101  and  _102
REMARK   47  A    between atoms: _101  and  _104
REMARK   48  A    between atoms: _104  and  _105
REMARK   49  A    between atoms: _110  and  _112
REMARK   50  A    between atoms: _112  and  _113
REMARK   51  A    between atoms: _112  and  _115
REMARK   52  A    between atoms: _115  and  _116
REMARK   53  A    between atoms: _116  and  _117
REMARK   54  A    between atoms: _117  and  _118
REMARK   55  A    between atoms: _118  and  _119
REMARK   56  A    between atoms: _123  and  _125
REMARK   57  A    between atoms: _125  and  _126
REMARK   58  A    between atoms: _125  and  _128
REMARK   59  A    between atoms: _128  and  _129
REMARK   60  A    between atoms: _132  and  _134
REMARK   61  A    between atoms: _134  and  _135
REMARK   62  A    between atoms: _137  and  _139
REMARK   63  A    between atoms: _139  and  _140
REMARK   64  A    between atoms: _139  and  _142
REMARK   65  A    between atoms: _142  and  _143
REMARK   66  A    between atoms: _146  and  _148
REMARK   67  A    between atoms: _148  and  _149
REMARK   68  A    between atoms: _151  and  _153
REMARK   69  A    between atoms: _153  and  _154
REMARK   70  A    between atoms: _156  and  _158
REMARK   71  A    between atoms: _158  and  _159
REMARK   72  A    between atoms: _161  and  _163
REMARK   73  A    between atoms: _163  and  _164
REMARK   74  A    between atoms: _163  and  _166
REMARK   75  A    between atoms: _166  and  _167
REMARK   76  A    between atoms: _169  and  _171
REMARK   77  A    between atoms: _171  and  _172
REMARK   78  A    between atoms: _171  and  _174
REMARK   79  A    between atoms: _174  and  _175
REMARK   80  A    between atoms: _178  and  _180
REMARK   81  A    between atoms: _180  and  _181
REMARK   82  A    between atoms: _180  and  _183
REMARK   83  A    between atoms: _185  and  _187
REMARK   84  A    between atoms: _187  and  _188
REMARK   85  A    between atoms: _187  and  _190
REMARK   86  A    between atoms: _190  and  _191
REMARK   87  A    between atoms: _194  and  _196
REMARK   88  A    between atoms: _196  and  _197
REMARK   89  A    between atoms: _196  and  _199
REMARK   90  A    between atoms: _199  and  _200
REMARK   91  A    between atoms: _203  and  _205
REMARK   92  A    between atoms: _205  and  _206
REMARK   93  A    between atoms: _205  and  _208
REMARK   94  A    between atoms: _208  and  _209
REMARK   95  A    between atoms: _209  and  _210
REMARK   96  A    between atoms: _210  and  _211
REMARK   97  A    between atoms: _220  and  _222
REMARK   98  A    between atoms: _222  and  _223
REMARK   99  A    between atoms: _222  and  _225
REMARK  100  A    between atoms: _225  and  _226
REMARK  101  A    between atoms: _226  and  _227
REMARK  102  A    between atoms: _232  and  _234
REMARK  103  A    between atoms: _234  and  _235
REMARK  104  A    between atoms: _234  and  _237
REMARK  105  A    between atoms: _239  and  _241
REMARK  106  A    between atoms: _241  and  _242
REMARK  107  A    between atoms: _241  and  _244
REMARK  108  A    between atoms: _244  and  _245
REMARK  109  A    between atoms: _247  and  _249
REMARK  110  A    between atoms: _249  and  _250
REMARK  111  A    between atoms: _249  and  _252
REMARK  112  A    between atoms: _252  and  _253
REMARK  113  A    between atoms: _256  and  _258
REMARK  114  A    between atoms: _258  and  _259
REMARK  115  A    between atoms: _261  and  _263
REMARK  116  A    between atoms: _263  and  _264
REMARK  117  A    between atoms: _266  and  _268
REMARK  118  A    between atoms: _268  and  _269
REMARK  119  A    between atoms: _268  and  _271
REMARK  120  A    between atoms: _271  and  _272
REMARK  121  A    between atoms: _275  and  _277
REMARK  122  A    between atoms: _277  and  _278
REMARK  123  A    between atoms: _277  and  _280
REMARK  124  A    between atoms: _283  and  _285
REMARK  125  A    between atoms: _285  and  _286
REMARK  126  A    between atoms: _285  and  _288
REMARK  127  A    between atoms: _288  and  _289
REMARK  128  A    between atoms: _292  and  _294
REMARK  129  A    between atoms: _294  and  _295
REMARK  130  A    between atoms: _294  and  _297
REMARK  131  A    between atoms: _297  and  _298
REMARK  132  A    between atoms: _298  and  _299
REMARK  133  A    between atoms: _301  and  _303
REMARK  134  A    between atoms: _303  and  _304
REMARK  135  A    between atoms: _303  and  _306
REMARK  136  A    between atoms: _306  and  _307
REMARK  137  A    between atoms: _310  and  _312
REMARK  138  A    between atoms: _312  and  _313
REMARK  139  A    between atoms: _315  and  _317
REMARK  140  A    between atoms: _317  and  _318
REMARK  141  A    between atoms: _317  and  _320
REMARK  142  A    between atoms: _320  and  _321
REMARK  143  A    between atoms: _321  and  _322
REMARK  144  A    between atoms: _322  and  _323
REMARK  145  A    between atoms: _332  and  _334
REMARK  146  A    between atoms: _334  and  _335
REMARK  147  A    between atoms: _334  and  _337
REMARK  148  A    between atoms: _337  and  _338
REMARK  149  A    between atoms: _343  and  _344
REMARK  150  A    between atoms: _346  and  _348
REMARK  151  A    between atoms: _348  and  _349
REMARK  152  A    between atoms: _348  and  _351
REMARK  153  A    between atoms: _351  and  _352
REMARK  154  A    between atoms: _358  and  _360
REMARK  155  A    between atoms: _360  and  _361
REMARK  156  A    between atoms: _364  and  _366
REMARK  157  A    between atoms: _366  and  _367
REMARK  158  A    between atoms: _366  and  _369
REMARK  159  A    between atoms: _369  and  _370
REMARK  160  A    between atoms: _375  and  _376
REMARK  161  A    between atoms: _378  and  _380
REMARK  162  A    between atoms: _380  and  _381
REMARK  163  A    between atoms: _380  and  _383
REMARK  164  A    between atoms: _383  and  _384
REMARK  165  A    between atoms: _394  and  _396
REMARK  166  A    between atoms: _396  and  _397
REMARK  167  A    between atoms: _399  and  _401
REMARK  168  A    between atoms: _401  and  _402
REMARK  169  A    between atoms: _401  and  _404
REMARK  170  A    between atoms: _404  and  _405
REMARK  171  A    between atoms: _405  and  _406
REMARK  172  A    between atoms: _409  and  _411
REMARK  173  A    between atoms: _411  and  _412
REMARK  174  A    between atoms: _414  and  _416
REMARK  175  A    between atoms: _416  and  _417
REMARK  176  A    between atoms: _416  and  _419
REMARK  177  A    between atoms: _419  and  _420
REMARK  178  A    between atoms: _422  and  _424
REMARK  179  A    between atoms: _424  and  _425
REMARK  180  A    between atoms: _424  and  _427
REMARK  181  A    between atoms: _427  and  _428
REMARK  182  A    between atoms: _430  and  _432
REMARK  183  A    between atoms: _432  and  _433
REMARK  184  A    between atoms: _436  and  _438
REMARK  185  A    between atoms: _438  and  _439
REMARK  186  A    between atoms: _438  and  _441
REMARK  187  A    between atoms: _441  and  _442
REMARK  188  A    between atoms: _442  and  _443
REMARK  189  A    between atoms: _443  and  _444
REMARK  190  A    between atoms: _453  and  _455
REMARK  191  A    between atoms: _455  and  _456
REMARK  192  A    between atoms: _455  and  _458
REMARK  193  A    between atoms: _458  and  _459
REMARK  194  A    between atoms: _464  and  _466
REMARK  195  A    between atoms: _466  and  _467
REMARK  196  A    between atoms: _466  and  _469
REMARK  197  A    between atoms: _469  and  _470
REMARK  198  A    between atoms: _470  and  _471
REMARK  199  A    between atoms: _471  and  _472
REMARK  200  A    between atoms: _481  and  _483
REMARK  201  A    between atoms: _483  and  _484
REMARK  202  A    between atoms: _483  and  _486
REMARK  203  A    between atoms: _486  and  _487
REMARK  204  A    between atoms: _492  and  _493
REMARK  205  A    between atoms: _495  and  _497
REMARK  206  A    between atoms: _497  and  _498
REMARK  207  A    between atoms: _497  and  _500
REMARK  208  A    between atoms: _500  and  _501
REMARK  209  A    between atoms: _504  and  _506
REMARK  210  A    between atoms: _506  and  _507
REMARK  211  A    between atoms: _506  and  _509
REMARK  212  A    between atoms: _509  and  _510
REMARK  213  A    between atoms: _510  and  _511
REMARK  214  A    between atoms: _514  and  _516
REMARK  215  A    between atoms: _516  and  _517
REMARK  216  A    between atoms: _516  and  _519
REMARK  217  A    between atoms: _519  and  _520
REMARK  218  A    between atoms: _520  and  _521
REMARK  219  A    between atoms: _524  and  _526
REMARK  220  A    between atoms: _526  and  _527
REMARK  221  A    between atoms: _529  and  _531
REMARK  222  A    between atoms: _531  and  _532
REMARK  223  A    between atoms: _531  and  _534
REMARK  224  A    between atoms: _537  and  _539
REMARK  225  A    between atoms: _539  and  _540
REMARK  226  A    between atoms: _539  and  _542
REMARK  227  A    between atoms: _542  and  _543
REMARK  228  A    between atoms: _546  and  _548
REMARK  229  A    between atoms: _548  and  _549
REMARK  230  A    between atoms: _548  and  _551
REMARK  231  A    between atoms: _554  and  _556
REMARK  232  A    between atoms: _556  and  _557
REMARK  233  A    between atoms: _556  and  _559
REMARK  234  A    between atoms: _559  and  _560
REMARK  235  A    between atoms: _560  and  _561
REMARK  236  A    between atoms: _564  and  _566
REMARK  237  A    between atoms: _566  and  _567
REMARK  238  A    between atoms: _566  and  _569
REMARK  239  A    between atoms: _569  and  _570
REMARK  240  A    between atoms: _575  and  _577
REMARK  241  A    between atoms: _577  and  _578
REMARK  242  A    between atoms: _577  and  _580
REMARK  243  A    between atoms: _580  and  _581
REMARK  244  A    between atoms: _584  and  _586
REMARK  245  A    between atoms: _586  and  _587
REMARK  246  A    between atoms: _586  and  _589
REMARK                            x       y       z     vdW  Elec       q    Type
REMARK                         _______ _______ _______ _____ _____    ______ ____
ROOT
ATOM      1  O   HOH     1     -23.852  40.412  45.414  0.00  0.00    +0.000 OA
ENDROOT
TORSDOF 0
REMARK  Name = ../refined-set-2016/1pvn/1pvn_pocket.pdb
REMARK  246 active torsions:
REMARK  status: ('A' for Active; 'I' for Inactive)
REMARK    1  A    between atoms: _1  and  _3
REMARK    2  A    between atoms: _3  and  _4
REMARK    3  A    between atoms: _3  and  _6
REMARK    4  A    between atoms: _9  and  _11
REMARK    5  A    between atoms: _11  and  _12
REMARK    6  A    between atoms: _11  and  _14
REMARK    7  A    between atoms: _14  and  _15
REMARK    8  A    between atoms: _17  and  _19
REMARK    9  A    between atoms: _19  and  _20
REMARK   10  A    between atoms: _23  and  _25
REMARK   11  A    between atoms: _25  and  _26
REMARK   12  A    between atoms: _25  and  _28
REMARK   13  A    between atoms: _28  and  _29
REMARK   14  A    between atoms: _32  and  _34
REMARK   15  A    between atoms: _34  and  _35
REMARK   16  A    between atoms: _34  and  _37
REMARK   17  A    between atoms: _37  and  _38
REMARK   18  A    between atoms: _38  and  _39
REMARK   19  A    between atoms: _41  and  _43
REMARK   20  A    between atoms: _43  and  _44
REMARK   21  A    between atoms: _43  and  _46
REMARK   22  A    between atoms: _46  and  _47
REMARK   23  A    between atoms: _47  and  _48
REMARK   24  A    between atoms: _53  and  _55
REMARK   25  A    between atoms: _55  and  _56
REMARK   26  A    between atoms: _55  and  _58
REMARK   27  A    between atoms: _58  and  _59
REMARK   28  A    between atoms: _61  and  _63
REMARK   29  A    between atoms: _63  and  _64
REMARK   30  A    between atoms: _63  and  _66
REMARK   31  A    between atoms: _69  and  _71
REMARK   32  A    between atoms: _71  and  _72
REMARK   33  A    between atoms: _71  and  _74
REMARK   34  A    between atoms: _74  and  _75
REMARK   35  A    between atoms: _78  and  _80
REMARK   36  A    between atoms: _80  and  _81
REMARK   37  A    between atoms: _80  and  _83
REMARK   38  A    between atoms: _83  and  _84
REMARK   39  A    between atoms: _86  and  _88
REMARK   40  A    between atoms: _88  and  _89
REMARK   41  A    between atoms: _88  and  _91
REMARK   42  A    between atoms: _91  and  _92
REMARK   43  A    between atoms: _94  and  _96
REMARK   44  A    between atoms: _96  and  _97
REMARK   45  A    between atoms: _99  and  _101
REMARK   46  A    between atoms: _101  and  _102
REMARK   47  A    between atoms: _101  and  _104
REMARK   48  A    between atoms: _104  and  _105
REMARK   49  A    between atoms: _110  and  _112
REMARK   50  A    between atoms: _112  and  _113
REMARK   51  A    between atoms: _112  and  _115
REMARK   52  A    between atoms: _115  and  _116
REMARK   53  A    between atoms: _116  and  _117
REMARK   54  A    between atoms: _117  and  _118
REMARK   55  A    between atoms: _118  and  _119
REMARK   56  A    between atoms: _123  and  _125
REMARK   57  A    between atoms: _125  and  _126
REMARK   58  A    between atoms: _125  and  _128
REMARK   59  A    between atoms: _128  and  _129
REMARK   60  A    between atoms: _132  and  _134
REMARK   61  A    between atoms: _134  and  _135
REMARK   62  A    between atoms: _137  and  _139
REMARK   63  A    between atoms: _139  and  _140
REMARK   64  A    between atoms: _139  and  _142
REMARK   65  A    between atoms: _142  and  _143
REMARK   66  A    between atoms: _146  and  _148
REMARK   67  A    between atoms: _148  and  _149
REMARK   68  A    between atoms: _151  and  _153
REMARK   69  A    between atoms: _153  and  _154
REMARK   70  A    between atoms: _156  and  _158
REMARK   71  A    between atoms: _158  and  _159
REMARK   72  A    between atoms: _161  and  _163
REMARK   73  A    between atoms: _163  and  _164
REMARK   74  A    between atoms: _163  and  _166
REMARK   75  A    between atoms: _166  and  _167
REMARK   76  A    between atoms: _169  and  _171
REMARK   77  A    between atoms: _171  and  _172
REMARK   78  A    between atoms: _171  and  _174
REMARK   79  A    between atoms: _174  and  _175
REMARK   80  A    between atoms: _178  and  _180
REMARK   81  A    between atoms: _180  and  _181
REMARK   82  A    between atoms: _180  and  _183
REMARK   83  A    between atoms: _185  and  _187
REMARK   84  A    between atoms: _187  and  _188
REMARK   85  A    between atoms: _187  and  _190
REMARK   86  A    between atoms: _190  and  _191
REMARK   87  A    between atoms: _194  and  _196
REMARK   88  A    between atoms: _196  and  _197
REMARK   89  A    between atoms: _196  and  _199
REMARK   90  A    between atoms: _199  and  _200
REMARK   91  A    between atoms: _203  and  _205
REMARK   92  A    between atoms: _205  and  _206
REMARK   93  A    between atoms: _205  and  _208
REMARK   94  A    between atoms: _208  and  _209
REMARK   95  A    between atoms: _209  and  _210
REMARK   96  A    between atoms: _210  and  _211
REMARK   97  A    between atoms: _220  and  _222
REMARK   98  A    between atoms: _222  and  _223
REMARK   99  A    between atoms: _222  and  _225
REMARK  100  A    between atoms: _225  and  _226
REMARK  101  A    between atoms: _226  and  _227
REMARK  102  A    between atoms: _232  and  _234
REMARK  103  A    between atoms: _234  and  _235
REMARK  104  A    between atoms: _234  and  _237
REMARK  105  A    between atoms: _239  and  _241
REMARK  106  A    between atoms: _241  and  _242
REMARK  107  A    between atoms: _241  and  _244
REMARK  108  A    between atoms: _244  and  _245
REMARK  109  A    between atoms: _247  and  _249
REMARK  110  A    between atoms: _249  and  _250
REMARK  111  A    between atoms: _249  and  _252
REMARK  112  A    between atoms: _252  and  _253
REMARK  113  A    between atoms: _256  and  _258
REMARK  114  A    between atoms: _258  and  _259
REMARK  115  A    between atoms: _261  and  _263
REMARK  116  A    between atoms: _263  and  _264
REMARK  117  A    between atoms: _266  and  _268
REMARK  118  A    between atoms: _268  and  _269
REMARK  119  A    between atoms: _268  and  _271
REMARK  120  A    between atoms: _271  and  _272
REMARK  121  A    between atoms: _275  and  _277
REMARK  122  A    between atoms: _277  and  _278
REMARK  123  A    between atoms: _277  and  _280
REMARK  124  A    between atoms: _283  and  _285
REMARK  125  A    between atoms: _285  and  _286
REMARK  126  A    between atoms: _285  and  _288
REMARK  127  A    between atoms: _288  and  _289
REMARK  128  A    between atoms: _292  and  _294
REMARK  129  A    between atoms: _294  and  _295
REMARK  130  A    between atoms: _294  and  _297
REMARK  131  A    between atoms: _297  and  _298
REMARK  132  A    between atoms: _298  and  _299
REMARK  133  A    between atoms: _301  and  _303
REMARK  134  A    between atoms: _303  and  _304
REMARK  135  A    between atoms: _303  and  _306
REMARK  136  A    between atoms: _306  and  _307
REMARK  137  A    between atoms: _310  and  _312
REMARK  138  A    between atoms: _312  and  _313
REMARK  139  A    between atoms: _315  and  _317
REMARK  140  A    between atoms: _317  and  _318
REMARK  141  A    between atoms: _317  and  _320
REMARK  142  A    between atoms: _320  and  _321
REMARK  143  A    between atoms: _321  and  _322
REMARK  144  A    between atoms: _322  and  _323
REMARK  145  A    between atoms: _332  and  _334
REMARK  146  A    between atoms: _334  and  _335
REMARK  147  A    between atoms: _334  and  _337
REMARK  148  A    between atoms: _337  and  _338
REMARK  149  A    between atoms: _343  and  _344
REMARK  150  A    between atoms: _346  and  _348
REMARK  151  A    between atoms: _348  and  _349
REMARK  152  A    between atoms: _348  and  _351
REMARK  153  A    between atoms: _351  and  _352
REMARK  154  A    between atoms: _358  and  _360
REMARK  155  A    between atoms: _360  and  _361
REMARK  156  A    between atoms: _364  and  _366
REMARK  157  A    between atoms: _366  and  _367
REMARK  158  A    between atoms: _366  and  _369
REMARK  159  A    between atoms: _369  and  _370
REMARK  160  A    between atoms: _375  and  _376
REMARK  161  A    between atoms: _378  and  _380
REMARK  162  A    between atoms: _380  and  _381
REMARK  163  A    between atoms: _380  and  _383
REMARK  164  A    between atoms: _383  and  _384
REMARK  165  A    between atoms: _394  and  _396
REMARK  166  A    between atoms: _396  and  _397
REMARK  167  A    between atoms: _399  and  _401
REMARK  168  A    between atoms: _401  and  _402
REMARK  169  A    between atoms: _401  and  _404
REMARK  170  A    between atoms: _404  and  _405
REMARK  171  A    between atoms: _405  and  _406
REMARK  172  A    between atoms: _409  and  _411
REMARK  173  A    between atoms: _411  and  _412
REMARK  174  A    between atoms: _414  and  _416
REMARK  175  A    between atoms: _416  and  _417
REMARK  176  A    between atoms: _416  and  _419
REMARK  177  A    between atoms: _419  and  _420
REMARK  178  A    between atoms: _422  and  _424
REMARK  179  A    between atoms: _424  and  _425
REMARK  180  A    between atoms: _424  and  _427
REMARK  181  A    between atoms: _427  and  _428
REMARK  182  A    between atoms: _430  and  _432
REMARK  183  A    between atoms: _432  and  _433
REMARK  184  A    between atoms: _436  and  _438
REMARK  185  A    between atoms: _438  and  _439
REMARK  186  A    between atoms: _438  and  _441
REMARK  187  A    between atoms: _441  and  _442
REMARK  188  A    between atoms: _442  and  _443
REMARK  189  A    between atoms: _443  and  _444
REMARK  190  A    between atoms: _453  and  _455
REMARK  191  A    between atoms: _455  and  _456
REMARK  192  A    between atoms: _455  and  _458
REMARK  193  A    between atoms: _458  and  _459
REMARK  194  A    between atoms: _464  and  _466
REMARK  195  A    between atoms: _466  and  _467
REMARK  196  A    between atoms: _466  and  _469
REMARK  197  A    between atoms: _469  and  _470
REMARK  198  A    between atoms: _470  and  _471
REMARK  199  A    between atoms: _471  and  _472
REMARK  200  A    between atoms: _481  and  _483
REMARK  201  A    between atoms: _483  and  _484
REMARK  202  A    between atoms: _483  and  _486
REMARK  203  A    between atoms: _486  and  _487
REMARK  204  A    between atoms: _492  and  _493
REMARK  205  A    between atoms: _495  and  _497
REMARK  206  A    between atoms: _497  and  _498
REMARK  207  A    between atoms: _497  and  _500
REMARK  208  A    between atoms: _500  and  _501
REMARK  209  A    between atoms: _504  and  _506
REMARK  210  A    between atoms: _506  and  _507
REMARK  211  A    between atoms: _506  and  _509
REMARK  212  A    between atoms: _509  and  _510
REMARK  213  A    between atoms: _510  and  _511
REMARK  214  A    between atoms: _514  and  _516
REMARK  215  A    between atoms: _516  and  _517
REMARK  216  A    between atoms: _516  and  _519
REMARK  217  A    between atoms: _519  and  _520
REMARK  218  A    between atoms: _520  and  _521
REMARK  219  A    between atoms: _524  and  _526
REMARK  220  A    between atoms: _526  and  _527
REMARK  221  A    between atoms: _529  and  _531
REMARK  222  A    between atoms: _531  and  _532
REMARK  223  A    between atoms: _531  and  _534
REMARK  224  A    between atoms: _537  and  _539
REMARK  225  A    between atoms: _539  and  _540
REMARK  226  A    between atoms: _539  and  _542
REMARK  227  A    between atoms: _542  and  _543
REMARK  228  A    between atoms: _546  and  _548
REMARK  229  A    between atoms: _548  and  _549
REMARK  230  A    between atoms: _548  and  _551
REMARK  231  A    between atoms: _554  and  _556
REMARK  232  A    between atoms: _556  and  _557
REMARK  233  A    between atoms: _556  and  _559
REMARK  234  A    between atoms: _559  and  _560
REMARK  235  A    between atoms: _560  and  _561
REMARK  236  A    between atoms: _564  and  _566
REMARK  237  A    between atoms: _566  and  _567
REMARK  238  A    between atoms: _566  and  _569
REMARK  239  A    between atoms: _569  and  _570
REMARK  240  A    between atoms: _575  and  _577
REMARK  241  A    between atoms: _577  and  _578
REMARK  242  A    between atoms: _577  and  _580
REMARK  243  A    between atoms: _580  and  _581
REMARK  244  A    between atoms: _584  and  _586
REMARK  245  A    between atoms: _586  and  _587
REMARK  246  A    between atoms: _586  and  _589
REMARK                            x       y       z     vdW  Elec       q    Type
REMARK                         _______ _______ _______ _____ _____    ______ ____
ROOT
ATOM      1  O   HOH     1     -26.065  42.057  42.639  0.00  0.00    +0.000 OA
ENDROOT
TORSDOF 0
REMARK  Name = ../refined-set-2016/1pvn/1pvn_pocket.pdb
REMARK  246 active torsions:
REMARK  status: ('A' for Active; 'I' for Inactive)
REMARK    1  A    between atoms: _1  and  _3
REMARK    2  A    between atoms: _3  and  _4
REMARK    3  A    between atoms: _3  and  _6
REMARK    4  A    between atoms: _9  and  _11
REMARK    5  A    between atoms: _11  and  _12
REMARK    6  A    between atoms: _11  and  _14
REMARK    7  A    between atoms: _14  and  _15
REMARK    8  A    between atoms: _17  and  _19
REMARK    9  A    between atoms: _19  and  _20
REMARK   10  A    between atoms: _23  and  _25
REMARK   11  A    between atoms: _25  and  _26
REMARK   12  A    between atoms: _25  and  _28
REMARK   13  A    between atoms: _28  and  _29
REMARK   14  A    between atoms: _32  and  _34
REMARK   15  A    between atoms: _34  and  _35
REMARK   16  A    between atoms: _34  and  _37
REMARK   17  A    between atoms: _37  and  _38
REMARK   18  A    between atoms: _38  and  _39
REMARK   19  A    between atoms: _41  and  _43
REMARK   20  A    between atoms: _43  and  _44
REMARK   21  A    between atoms: _43  and  _46
REMARK   22  A    between atoms: _46  and  _47
REMARK   23  A    between atoms: _47  and  _48
REMARK   24  A    between atoms: _53  and  _55
REMARK   25  A    between atoms: _55  and  _56
REMARK   26  A    between atoms: _55  and  _58
REMARK   27  A    between atoms: _58  and  _59
REMARK   28  A    between atoms: _61  and  _63
REMARK   29  A    between atoms: _63  and  _64
REMARK   30  A    between atoms: _63  and  _66
REMARK   31  A    between atoms: _69  and  _71
REMARK   32  A    between atoms: _71  and  _72
REMARK   33  A    between atoms: _71  and  _74
REMARK   34  A    between atoms: _74  and  _75
REMARK   35  A    between atoms: _78  and  _80
REMARK   36  A    between atoms: _80  and  _81
REMARK   37  A    between atoms: _80  and  _83
REMARK   38  A    between atoms: _83  and  _84
REMARK   39  A    between atoms: _86  and  _88
REMARK   40  A    between atoms: _88  and  _89
REMARK   41  A    between atoms: _88  and  _91
REMARK   42  A    between atoms: _91  and  _92
REMARK   43  A    between atoms: _94  and  _96
REMARK   44  A    between atoms: _96  and  _97
REMARK   45  A    between atoms: _99  and  _101
REMARK   46  A    between atoms: _101  and  _102
REMARK   47  A    between atoms: _101  and  _104
REMARK   48  A    between atoms: _104  and  _105
REMARK   49  A    between atoms: _110  and  _112
REMARK   50  A    between atoms: _112  and  _113
REMARK   51  A    between atoms: _112  and  _115
REMARK   52  A    between atoms: _115  and  _116
REMARK   53  A    between atoms: _116  and  _117
REMARK   54  A    between atoms: _117  and  _118
REMARK   55  A    between atoms: _118  and  _119
REMARK   56  A    between atoms: _123  and  _125
REMARK   57  A    between atoms: _125  and  _126
REMARK   58  A    between atoms: _125  and  _128
REMARK   59  A    between atoms: _128  and  _129
REMARK   60  A    between atoms: _132  and  _134
REMARK   61  A    between atoms: _134  and  _135
REMARK   62  A    between atoms: _137  and  _139
REMARK   63  A    between atoms: _139  and  _140
REMARK   64  A    between atoms: _139  and  _142
REMARK   65  A    between atoms: _142  and  _143
REMARK   66  A    between atoms: _146  and  _148
REMARK   67  A    between atoms: _148  and  _149
REMARK   68  A    between atoms: _151  and  _153
REMARK   69  A    between atoms: _153  and  _154
REMARK   70  A    between atoms: _156  and  _158
REMARK   71  A    between atoms: _158  and  _159
REMARK   72  A    between atoms: _161  and  _163
REMARK   73  A    between atoms: _163  and  _164
REMARK   74  A    between atoms: _163  and  _166
REMARK   75  A    between atoms: _166  and  _167
REMARK   76  A    between atoms: _169  and  _171
REMARK   77  A    between atoms: _171  and  _172
REMARK   78  A    between atoms: _171  and  _174
REMARK   79  A    between atoms: _174  and  _175
REMARK   80  A    between atoms: _178  and  _180
REMARK   81  A    between atoms: _180  and  _181
REMARK   82  A    between atoms: _180  and  _183
REMARK   83  A    between atoms: _185  and  _187
REMARK   84  A    between atoms: _187  and  _188
REMARK   85  A    between atoms: _187  and  _190
REMARK   86  A    between atoms: _190  and  _191
REMARK   87  A    between atoms: _194  and  _196
REMARK   88  A    between atoms: _196  and  _197
REMARK   89  A    between atoms: _196  and  _199
REMARK   90  A    between atoms: _199  and  _200
REMARK   91  A    between atoms: _203  and  _205
REMARK   92  A    between atoms: _205  and  _206
REMARK   93  A    between atoms: _205  and  _208
REMARK   94  A    between atoms: _208  and  _209
REMARK   95  A    between atoms: _209  and  _210
REMARK   96  A    between atoms: _210  and  _211
REMARK   97  A    between atoms: _220  and  _222
REMARK   98  A    between atoms: _222  and  _223
REMARK   99  A    between atoms: _222  and  _225
REMARK  100  A    between atoms: _225  and  _226
REMARK  101  A    between atoms: _226  and  _227
REMARK  102  A    between atoms: _232  and  _234
REMARK  103  A    between atoms: _234  and  _235
REMARK  104  A    between atoms: _234  and  _237
REMARK  105  A    between atoms: _239  and  _241
REMARK  106  A    between atoms: _241  and  _242
REMARK  107  A    between atoms: _241  and  _244
REMARK  108  A    between atoms: _244  and  _245
REMARK  109  A    between atoms: _247  and  _249
REMARK  110  A    between atoms: _249  and  _250
REMARK  111  A    between atoms: _249  and  _252
REMARK  112  A    between atoms: _252  and  _253
REMARK  113  A    between atoms: _256  and  _258
REMARK  114  A    between atoms: _258  and  _259
REMARK  115  A    between atoms: _261  and  _263
REMARK  116  A    between atoms: _263  and  _264
REMARK  117  A    between atoms: _266  and  _268
REMARK  118  A    between atoms: _268  and  _269
REMARK  119  A    between atoms: _268  and  _271
REMARK  120  A    between atoms: _271  and  _272
REMARK  121  A    between atoms: _275  and  _277
REMARK  122  A    between atoms: _277  and  _278
REMARK  123  A    between atoms: _277  and  _280
REMARK  124  A    between atoms: _283  and  _285
REMARK  125  A    between atoms: _285  and  _286
REMARK  126  A    between atoms: _285  and  _288
REMARK  127  A    between atoms: _288  and  _289
REMARK  128  A    between atoms: _292  and  _294
REMARK  129  A    between atoms: _294  and  _295
REMARK  130  A    between atoms: _294  and  _297
REMARK  131  A    between atoms: _297  and  _298
REMARK  132  A    between atoms: _298  and  _299
REMARK  133  A    between atoms: _301  and  _303
REMARK  134  A    between atoms: _303  and  _304
REMARK  135  A    between atoms: _303  and  _306
REMARK  136  A    between atoms: _306  and  _307
REMARK  137  A    between atoms: _310  and  _312
REMARK  138  A    between atoms: _312  and  _313
REMARK  139  A    between atoms: _315  and  _317
REMARK  140  A    between atoms: _317  and  _318
REMARK  141  A    between atoms: _317  and  _320
REMARK  142  A    between atoms: _320  and  _321
REMARK  143  A    between atoms: _321  and  _322
REMARK  144  A    between atoms: _322  and  _323
REMARK  145  A    between atoms: _332  and  _334
REMARK  146  A    between atoms: _334  and  _335
REMARK  147  A    between atoms: _334  and  _337
REMARK  148  A    between atoms: _337  and  _338
REMARK  149  A    between atoms: _343  and  _344
REMARK  150  A    between atoms: _346  and  _348
REMARK  151  A    between atoms: _348  and  _349
REMARK  152  A    between atoms: _348  and  _351
REMARK  153  A    between atoms: _351  and  _352
REMARK  154  A    between atoms: _358  and  _360
REMARK  155  A    between atoms: _360  and  _361
REMARK  156  A    between atoms: _364  and  _366
REMARK  157  A    between atoms: _366  and  _367
REMARK  158  A    between atoms: _366  and  _369
REMARK  159  A    between atoms: _369  and  _370
REMARK  160  A    between atoms: _375  and  _376
REMARK  161  A    between atoms: _378  and  _380
REMARK  162  A    between atoms: _380  and  _381
REMARK  163  A    between atoms: _380  and  _383
REMARK  164  A    between atoms: _383  and  _384
REMARK  165  A    between atoms: _394  and  _396
REMARK  166  A    between atoms: _396  and  _397
REMARK  167  A    between atoms: _399  and  _401
REMARK  168  A    between atoms: _401  and  _402
REMARK  169  A    between atoms: _401  and  _404
REMARK  170  A    between atoms: _404  and  _405
REMARK  171  A    between atoms: _405  and  _406
REMARK  172  A    between atoms: _409  and  _411
REMARK  173  A    between atoms: _411  and  _412
REMARK  174  A    between atoms: _414  and  _416
REMARK  175  A    between atoms: _416  and  _417
REMARK  176  A    between atoms: _416  and  _419
REMARK  177  A    between atoms: _419  and  _420
REMARK  178  A    between atoms: _422  and  _424
REMARK  179  A    between atoms: _424  and  _425
REMARK  180  A    between atoms: _424  and  _427
REMARK  181  A    between atoms: _427  and  _428
REMARK  182  A    between atoms: _430  and  _432
REMARK  183  A    between atoms: _432  and  _433
REMARK  184  A    between atoms: _436  and  _438
REMARK  185  A    between atoms: _438  and  _439
REMARK  186  A    between atoms: _438  and  _441
REMARK  187  A    between atoms: _441  and  _442
REMARK  188  A    between atoms: _442  and  _443
REMARK  189  A    between atoms: _443  and  _444
REMARK  190  A    between atoms: _453  and  _455
REMARK  191  A    between atoms: _455  and  _456
REMARK  192  A    between atoms: _455  and  _458
REMARK  193  A    between atoms: _458  and  _459
REMARK  194  A    between atoms: _464  and  _466
REMARK  195  A    between atoms: _466  and  _467
REMARK  196  A    between atoms: _466  and  _469
REMARK  197  A    between atoms: _469  and  _470
REMARK  198  A    between atoms: _470  and  _471
REMARK  199  A    between atoms: _471  and  _472
REMARK  200  A    between atoms: _481  and  _483
REMARK  201  A    between atoms: _483  and  _484
REMARK  202  A    between atoms: _483  and  _486
REMARK  203  A    between atoms: _486  and  _487
REMARK  204  A    between atoms: _492  and  _493
REMARK  205  A    between atoms: _495  and  _497
REMARK  206  A    between atoms: _497  and  _498
REMARK  207  A    between atoms: _497  and  _500
REMARK  208  A    between atoms: _500  and  _501
REMARK  209  A    between atoms: _504  and  _506
REMARK  210  A    between atoms: _506  and  _507
REMARK  211  A    between atoms: _506  and  _509
REMARK  212  A    between atoms: _509  and  _510
REMARK  213  A    between atoms: _510  and  _511
REMARK  214  A    between atoms: _514  and  _516
REMARK  215  A    between atoms: _516  and  _517
REMARK  216  A    between atoms: _516  and  _519
REMARK  217  A    between atoms: _519  and  _520
REMARK  218  A    between atoms: _520  and  _521
REMARK  219  A    between atoms: _524  and  _526
REMARK  220  A    between atoms: _526  and  _527
REMARK  221  A    between atoms: _529  and  _531
REMARK  222  A    between atoms: _531  and  _532
REMARK  223  A    between atoms: _531  and  _534
REMARK  224  A    between atoms: _537  and  _539
REMARK  225  A    between atoms: _539  and  _540
REMARK  226  A    between atoms: _539  and  _542
REMARK  227  A    between atoms: _542  and  _543
REMARK  228  A    between atoms: _546  and  _548
REMARK  229  A    between atoms: _548  and  _549
REMARK  230  A    between atoms: _548  and  _551
REMARK  231  A    between atoms: _554  and  _556
REMARK  232  A    between atoms: _556  and  _557
REMARK  233  A    between atoms: _556  and  _559
REMARK  234  A    between atoms: _559  and  _560
REMARK  235  A    between atoms: _560  and  _561
REMARK  236  A    between atoms: _564  and  _566
REMARK  237  A    between atoms: _566  and  _567
REMARK  238  A    between atoms: _566  and  _569
REMARK  239  A    between atoms: _569  and  _570
REMARK  240  A    between atoms: _575  and  _577
REMARK  241  A    between atoms: _577  and  _578
REMARK  242  A    between atoms: _577  and  _580
REMARK  243  A    between atoms: _580  and  _581
REMARK  244  A    between atoms: _584  and  _586
REMARK  245  A    between atoms: _586  and  _587
REMARK  246  A    between atoms: _586  and  _589
REMARK                            x       y       z     vdW  Elec       q    Type
REMARK                         _______ _______ _______ _____ _____    ______ ____
ROOT
ATOM      1  O   HOH     1     -30.835  43.049  46.155  0.00  0.00    +0.000 OA
ENDROOT
TORSDOF 0
REMARK  Name = ../refined-set-2016/1pvn/1pvn_pocket.pdb
REMARK  246 active torsions:
REMARK  status: ('A' for Active; 'I' for Inactive)
REMARK    1  A    between atoms: _1  and  _3
REMARK    2  A    between atoms: _3  and  _4
REMARK    3  A    between atoms: _3  and  _6
REMARK    4  A    between atoms: _9  and  _11
REMARK    5  A    between atoms: _11  and  _12
REMARK    6  A    between atoms: _11  and  _14
REMARK    7  A    between atoms: _14  and  _15
REMARK    8  A    between atoms: _17  and  _19
REMARK    9  A    between atoms: _19  and  _20
REMARK   10  A    between atoms: _23  and  _25
REMARK   11  A    between atoms: _25  and  _26
REMARK   12  A    between atoms: _25  and  _28
REMARK   13  A    between atoms: _28  and  _29
REMARK   14  A    between atoms: _32  and  _34
REMARK   15  A    between atoms: _34  and  _35
REMARK   16  A    between atoms: _34  and  _37
REMARK   17  A    between atoms: _37  and  _38
REMARK   18  A    between atoms: _38  and  _39
REMARK   19  A    between atoms: _41  and  _43
REMARK   20  A    between atoms: _43  and  _44
REMARK   21  A    between atoms: _43  and  _46
REMARK   22  A    between atoms: _46  and  _47
REMARK   23  A    between atoms: _47  and  _48
REMARK   24  A    between atoms: _53  and  _55
REMARK   25  A    between atoms: _55  and  _56
REMARK   26  A    between atoms: _55  and  _58
REMARK   27  A    between atoms: _58  and  _59
REMARK   28  A    between atoms: _61  and  _63
REMARK   29  A    between atoms: _63  and  _64
REMARK   30  A    between atoms: _63  and  _66
REMARK   31  A    between atoms: _69  and  _71
REMARK   32  A    between atoms: _71  and  _72
REMARK   33  A    between atoms: _71  and  _74
REMARK   34  A    between atoms: _74  and  _75
REMARK   35  A    between atoms: _78  and  _80
REMARK   36  A    between atoms: _80  and  _81
REMARK   37  A    between atoms: _80  and  _83
REMARK   38  A    between atoms: _83  and  _84
REMARK   39  A    between atoms: _86  and  _88
REMARK   40  A    between atoms: _88  and  _89
REMARK   41  A    between atoms: _88  and  _91
REMARK   42  A    between atoms: _91  and  _92
REMARK   43  A    between atoms: _94  and  _96
REMARK   44  A    between atoms: _96  and  _97
REMARK   45  A    between atoms: _99  and  _101
REMARK   46  A    between atoms: _101  and  _102
REMARK   47  A    between atoms: _101  and  _104
REMARK   48  A    between atoms: _104  and  _105
REMARK   49  A    between atoms: _110  and  _112
REMARK   50  A    between atoms: _112  and  _113
REMARK   51  A    between atoms: _112  and  _115
REMARK   52  A    between atoms: _115  and  _116
REMARK   53  A    between atoms: _116  and  _117
REMARK   54  A    between atoms: _117  and  _118
REMARK   55  A    between atoms: _118  and  _119
REMARK   56  A    between atoms: _123  and  _125
REMARK   57  A    between atoms: _125  and  _126
REMARK   58  A    between atoms: _125  and  _128
REMARK   59  A    between atoms: _128  and  _129
REMARK   60  A    between atoms: _132  and  _134
REMARK   61  A    between atoms: _134  and  _135
REMARK   62  A    between atoms: _137  and  _139
REMARK   63  A    between atoms: _139  and  _140
REMARK   64  A    between atoms: _139  and  _142
REMARK   65  A    between atoms: _142  and  _143
REMARK   66  A    between atoms: _146  and  _148
REMARK   67  A    between atoms: _148  and  _149
REMARK   68  A    between atoms: _151  and  _153
REMARK   69  A    between atoms: _153  and  _154
REMARK   70  A    between atoms: _156  and  _158
REMARK   71  A    between atoms: _158  and  _159
REMARK   72  A    between atoms: _161  and  _163
REMARK   73  A    between atoms: _163  and  _164
REMARK   74  A    between atoms: _163  and  _166
REMARK   75  A    between atoms: _166  and  _167
REMARK   76  A    between atoms: _169  and  _171
REMARK   77  A    between atoms: _171  and  _172
REMARK   78  A    between atoms: _171  and  _174
REMARK   79  A    between atoms: _174  and  _175
REMARK   80  A    between atoms: _178  and  _180
REMARK   81  A    between atoms: _180  and  _181
REMARK   82  A    between atoms: _180  and  _183
REMARK   83  A    between atoms: _185  and  _187
REMARK   84  A    between atoms: _187  and  _188
REMARK   85  A    between atoms: _187  and  _190
REMARK   86  A    between atoms: _190  and  _191
REMARK   87  A    between atoms: _194  and  _196
REMARK   88  A    between atoms: _196  and  _197
REMARK   89  A    between atoms: _196  and  _199
REMARK   90  A    between atoms: _199  and  _200
REMARK   91  A    between atoms: _203  and  _205
REMARK   92  A    between atoms: _205  and  _206
REMARK   93  A    between atoms: _205  and  _208
REMARK   94  A    between atoms: _208  and  _209
REMARK   95  A    between atoms: _209  and  _210
REMARK   96  A    between atoms: _210  and  _211
REMARK   97  A    between atoms: _220  and  _222
REMARK   98  A    between atoms: _222  and  _223
REMARK   99  A    between atoms: _222  and  _225
REMARK  100  A    between atoms: _225  and  _226
REMARK  101  A    between atoms: _226  and  _227
REMARK  102  A    between atoms: _232  and  _234
REMARK  103  A    between atoms: _234  and  _235
REMARK  104  A    between atoms: _234  and  _237
REMARK  105  A    between atoms: _239  and  _241
REMARK  106  A    between atoms: _241  and  _242
REMARK  107  A    between atoms: _241  and  _244
REMARK  108  A    between atoms: _244  and  _245
REMARK  109  A    between atoms: _247  and  _249
REMARK  110  A    between atoms: _249  and  _250
REMARK  111  A    between atoms: _249  and  _252
REMARK  112  A    between atoms: _252  and  _253
REMARK  113  A    between atoms: _256  and  _258
REMARK  114  A    between atoms: _258  and  _259
REMARK  115  A    between atoms: _261  and  _263
REMARK  116  A    between atoms: _263  and  _264
REMARK  117  A    between atoms: _266  and  _268
REMARK  118  A    between atoms: _268  and  _269
REMARK  119  A    between atoms: _268  and  _271
REMARK  120  A    between atoms: _271  and  _272
REMARK  121  A    between atoms: _275  and  _277
REMARK  122  A    between atoms: _277  and  _278
REMARK  123  A    between atoms: _277  and  _280
REMARK  124  A    between atoms: _283  and  _285
REMARK  125  A    between atoms: _285  and  _286
REMARK  126  A    between atoms: _285  and  _288
REMARK  127  A    between atoms: _288  and  _289
REMARK  128  A    between atoms: _292  and  _294
REMARK  129  A    between atoms: _294  and  _295
REMARK  130  A    between atoms: _294  and  _297
REMARK  131  A    between atoms: _297  and  _298
REMARK  132  A    between atoms: _298  and  _299
REMARK  133  A    between atoms: _301  and  _303
REMARK  134  A    between atoms: _303  and  _304
REMARK  135  A    between atoms: _303  and  _306
REMARK  136  A    between atoms: _306  and  _307
REMARK  137  A    between atoms: _310  and  _312
REMARK  138  A    between atoms: _312  and  _313
REMARK  139  A    between atoms: _315  and  _317
REMARK  140  A    between atoms: _317  and  _318
REMARK  141  A    between atoms: _317  and  _320
REMARK  142  A    between atoms: _320  and  _321
REMARK  143  A    between atoms: _321  and  _322
REMARK  144  A    between atoms: _322  and  _323
REMARK  145  A    between atoms: _332  and  _334
REMARK  146  A    between atoms: _334  and  _335
REMARK  147  A    between atoms: _334  and  _337
REMARK  148  A    between atoms: _337  and  _338
REMARK  149  A    between atoms: _343  and  _344
REMARK  150  A    between atoms: _346  and  _348
REMARK  151  A    between atoms: _348  and  _349
REMARK  152  A    between atoms: _348  and  _351
REMARK  153  A    between atoms: _351  and  _352
REMARK  154  A    between atoms: _358  and  _360
REMARK  155  A    between atoms: _360  and  _361
REMARK  156  A    between atoms: _364  and  _366
REMARK  157  A    between atoms: _366  and  _367
REMARK  158  A    between atoms: _366  and  _369
REMARK  159  A    between atoms: _369  and  _370
REMARK  160  A    between atoms: _375  and  _376
REMARK  161  A    between atoms: _378  and  _380
REMARK  162  A    between atoms: _380  and  _381
REMARK  163  A    between atoms: _380  and  _383
REMARK  164  A    between atoms: _383  and  _384
REMARK  165  A    between atoms: _394  and  _396
REMARK  166  A    between atoms: _396  and  _397
REMARK  167  A    between atoms: _399  and  _401
REMARK  168  A    between atoms: _401  and  _402
REMARK  169  A    between atoms: _401  and  _404
REMARK  170  A    between atoms: _404  and  _405
REMARK  171  A    between atoms: _405  and  _406
REMARK  172  A    between atoms: _409  and  _411
REMARK  173  A    between atoms: _411  and  _412
REMARK  174  A    between atoms: _414  and  _416
REMARK  175  A    between atoms: _416  and  _417
REMARK  176  A    between atoms: _416  and  _419
REMARK  177  A    between atoms: _419  and  _420
REMARK  178  A    between atoms: _422  and  _424
REMARK  179  A    between atoms: _424  and  _425
REMARK  180  A    between atoms: _424  and  _427
REMARK  181  A    between atoms: _427  and  _428
REMARK  182  A    between atoms: _430  and  _432
REMARK  183  A    between atoms: _432  and  _433
REMARK  184  A    between atoms: _436  and  _438
REMARK  185  A    between atoms: _438  and  _439
REMARK  186  A    between atoms: _438  and  _441
REMARK  187  A    between atoms: _441  and  _442
REMARK  188  A    between atoms: _442  and  _443
REMARK  189  A    between atoms: _443  and  _444
REMARK  190  A    between atoms: _453  and  _455
REMARK  191  A    between atoms: _455  and  _456
REMARK  192  A    between atoms: _455  and  _458
REMARK  193  A    between atoms: _458  and  _459
REMARK  194  A    between atoms: _464  and  _466
REMARK  195  A    between atoms: _466  and  _467
REMARK  196  A    between atoms: _466  and  _469
REMARK  197  A    between atoms: _469  and  _470
REMARK  198  A    between atoms: _470  and  _471
REMARK  199  A    between atoms: _471  and  _472
REMARK  200  A    between atoms: _481  and  _483
REMARK  201  A    between atoms: _483  and  _484
REMARK  202  A    between atoms: _483  and  _486
REMARK  203  A    between atoms: _486  and  _487
REMARK  204  A    between atoms: _492  and  _493
REMARK  205  A    between atoms: _495  and  _497
REMARK  206  A    between atoms: _497  and  _498
REMARK  207  A    between atoms: _497  and  _500
REMARK  208  A    between atoms: _500  and  _501
REMARK  209  A    between atoms: _504  and  _506
REMARK  210  A    between atoms: _506  and  _507
REMARK  211  A    between atoms: _506  and  _509
REMARK  212  A    between atoms: _509  and  _510
REMARK  213  A    between atoms: _510  and  _511
REMARK  214  A    between atoms: _514  and  _516
REMARK  215  A    between atoms: _516  and  _517
REMARK  216  A    between atoms: _516  and  _519
REMARK  217  A    between atoms: _519  and  _520
REMARK  218  A    between atoms: _520  and  _521
REMARK  219  A    between atoms: _524  and  _526
REMARK  220  A    between atoms: _526  and  _527
REMARK  221  A    between atoms: _529  and  _531
REMARK  222  A    between atoms: _531  and  _532
REMARK  223  A    between atoms: _531  and  _534
REMARK  224  A    between atoms: _537  and  _539
REMARK  225  A    between atoms: _539  and  _540
REMARK  226  A    between atoms: _539  and  _542
REMARK  227  A    between atoms: _542  and  _543
REMARK  228  A    between atoms: _546  and  _548
REMARK  229  A    between atoms: _548  and  _549
REMARK  230  A    between atoms: _548  and  _551
REMARK  231  A    between atoms: _554  and  _556
REMARK  232  A    between atoms: _556  and  _557
REMARK  233  A    between atoms: _556  and  _559
REMARK  234  A    between atoms: _559  and  _560
REMARK  235  A    between atoms: _560  and  _561
REMARK  236  A    between atoms: _564  and  _566
REMARK  237  A    between atoms: _566  and  _567
REMARK  238  A    between atoms: _566  and  _569
REMARK  239  A    between atoms: _569  and  _570
REMARK  240  A    between atoms: _575  and  _577
REMARK  241  A    between atoms: _577  and  _578
REMARK  242  A    between atoms: _577  and  _580
REMARK  243  A    between atoms: _580  and  _581
REMARK  244  A    between atoms: _584  and  _586
REMARK  245  A    between atoms: _586  and  _587
REMARK  246  A    between atoms: _586  and  _589
REMARK                            x       y       z     vdW  Elec       q    Type
REMARK                         _______ _______ _______ _____ _____    ______ ____
ROOT
ATOM      1  O   HOH     1     -30.422  36.903  46.237  0.00  0.00    +0.000 OA
ENDROOT
TORSDOF 0
REMARK  Name = ../refined-set-2016/1pvn/1pvn_pocket.pdb
REMARK  246 active torsions:
REMARK  status: ('A' for Active; 'I' for Inactive)
REMARK    1  A    between atoms: _1  and  _3
REMARK    2  A    between atoms: _3  and  _4
REMARK    3  A    between atoms: _3  and  _6
REMARK    4  A    between atoms: _9  and  _11
REMARK    5  A    between atoms: _11  and  _12
REMARK    6  A    between atoms: _11  and  _14
REMARK    7  A    between atoms: _14  and  _15
REMARK    8  A    between atoms: _17  and  _19
REMARK    9  A    between atoms: _19  and  _20
REMARK   10  A    between atoms: _23  and  _25
REMARK   11  A    between atoms: _25  and  _26
REMARK   12  A    between atoms: _25  and  _28
REMARK   13  A    between atoms: _28  and  _29
REMARK   14  A    between atoms: _32  and  _34
REMARK   15  A    between atoms: _34  and  _35
REMARK   16  A    between atoms: _34  and  _37
REMARK   17  A    between atoms: _37  and  _38
REMARK   18  A    between atoms: _38  and  _39
REMARK   19  A    between atoms: _41  and  _43
REMARK   20  A    between atoms: _43  and  _44
REMARK   21  A    between atoms: _43  and  _46
REMARK   22  A    between atoms: _46  and  _47
REMARK   23  A    between atoms: _47  and  _48
REMARK   24  A    between atoms: _53  and  _55
REMARK   25  A    between atoms: _55  and  _56
REMARK   26  A    between atoms: _55  and  _58
REMARK   27  A    between atoms: _58  and  _59
REMARK   28  A    between atoms: _61  and  _63
REMARK   29  A    between atoms: _63  and  _64
REMARK   30  A    between atoms: _63  and  _66
REMARK   31  A    between atoms: _69  and  _71
REMARK   32  A    between atoms: _71  and  _72
REMARK   33  A    between atoms: _71  and  _74
REMARK   34  A    between atoms: _74  and  _75
REMARK   35  A    between atoms: _78  and  _80
REMARK   36  A    between atoms: _80  and  _81
REMARK   37  A    between atoms: _80  and  _83
REMARK   38  A    between atoms: _83  and  _84
REMARK   39  A    between atoms: _86  and  _88
REMARK   40  A    between atoms: _88  and  _89
REMARK   41  A    between atoms: _88  and  _91
REMARK   42  A    between atoms: _91  and  _92
REMARK   43  A    between atoms: _94  and  _96
REMARK   44  A    between atoms: _96  and  _97
REMARK   45  A    between atoms: _99  and  _101
REMARK   46  A    between atoms: _101  and  _102
REMARK   47  A    between atoms: _101  and  _104
REMARK   48  A    between atoms: _104  and  _105
REMARK   49  A    between atoms: _110  and  _112
REMARK   50  A    between atoms: _112  and  _113
REMARK   51  A    between atoms: _112  and  _115
REMARK   52  A    between atoms: _115  and  _116
REMARK   53  A    between atoms: _116  and  _117
REMARK   54  A    between atoms: _117  and  _118
REMARK   55  A    between atoms: _118  and  _119
REMARK   56  A    between atoms: _123  and  _125
REMARK   57  A    between atoms: _125  and  _126
REMARK   58  A    between atoms: _125  and  _128
REMARK   59  A    between atoms: _128  and  _129
REMARK   60  A    between atoms: _132  and  _134
REMARK   61  A    between atoms: _134  and  _135
REMARK   62  A    between atoms: _137  and  _139
REMARK   63  A    between atoms: _139  and  _140
REMARK   64  A    between atoms: _139  and  _142
REMARK   65  A    between atoms: _142  and  _143
REMARK   66  A    between atoms: _146  and  _148
REMARK   67  A    between atoms: _148  and  _149
REMARK   68  A    between atoms: _151  and  _153
REMARK   69  A    between atoms: _153  and  _154
REMARK   70  A    between atoms: _156  and  _158
REMARK   71  A    between atoms: _158  and  _159
REMARK   72  A    between atoms: _161  and  _163
REMARK   73  A    between atoms: _163  and  _164
REMARK   74  A    between atoms: _163  and  _166
REMARK   75  A    between atoms: _166  and  _167
REMARK   76  A    between atoms: _169  and  _171
REMARK   77  A    between atoms: _171  and  _172
REMARK   78  A    between atoms: _171  and  _174
REMARK   79  A    between atoms: _174  and  _175
REMARK   80  A    between atoms: _178  and  _180
REMARK   81  A    between atoms: _180  and  _181
REMARK   82  A    between atoms: _180  and  _183
REMARK   83  A    between atoms: _185  and  _187
REMARK   84  A    between atoms: _187  and  _188
REMARK   85  A    between atoms: _187  and  _190
REMARK   86  A    between atoms: _190  and  _191
REMARK   87  A    between atoms: _194  and  _196
REMARK   88  A    between atoms: _196  and  _197
REMARK   89  A    between atoms: _196  and  _199
REMARK   90  A    between atoms: _199  and  _200
REMARK   91  A    between atoms: _203  and  _205
REMARK   92  A    between atoms: _205  and  _206
REMARK   93  A    between atoms: _205  and  _208
REMARK   94  A    between atoms: _208  and  _209
REMARK   95  A    between atoms: _209  and  _210
REMARK   96  A    between atoms: _210  and  _211
REMARK   97  A    between atoms: _220  and  _222
REMARK   98  A    between atoms: _222  and  _223
REMARK   99  A    between atoms: _222  and  _225
REMARK  100  A    between atoms: _225  and  _226
REMARK  101  A    between atoms: _226  and  _227
REMARK  102  A    between atoms: _232  and  _234
REMARK  103  A    between atoms: _234  and  _235
REMARK  104  A    between atoms: _234  and  _237
REMARK  105  A    between atoms: _239  and  _241
REMARK  106  A    between atoms: _241  and  _242
REMARK  107  A    between atoms: _241  and  _244
REMARK  108  A    between atoms: _244  and  _245
REMARK  109  A    between atoms: _247  and  _249
REMARK  110  A    between atoms: _249  and  _250
REMARK  111  A    between atoms: _249  and  _252
REMARK  112  A    between atoms: _252  and  _253
REMARK  113  A    between atoms: _256  and  _258
REMARK  114  A    between atoms: _258  and  _259
REMARK  115  A    between atoms: _261  and  _263
REMARK  116  A    between atoms: _263  and  _264
REMARK  117  A    between atoms: _266  and  _268
REMARK  118  A    between atoms: _268  and  _269
REMARK  119  A    between atoms: _268  and  _271
REMARK  120  A    between atoms: _271  and  _272
REMARK  121  A    between atoms: _275  and  _277
REMARK  122  A    between atoms: _277  and  _278
REMARK  123  A    between atoms: _277  and  _280
REMARK  124  A    between atoms: _283  and  _285
REMARK  125  A    between atoms: _285  and  _286
REMARK  126  A    between atoms: _285  and  _288
REMARK  127  A    between atoms: _288  and  _289
REMARK  128  A    between atoms: _292  and  _294
REMARK  129  A    between atoms: _294  and  _295
REMARK  130  A    between atoms: _294  and  _297
REMARK  131  A    between atoms: _297  and  _298
REMARK  132  A    between atoms: _298  and  _299
REMARK  133  A    between atoms: _301  and  _303
REMARK  134  A    between atoms: _303  and  _304
REMARK  135  A    between atoms: _303  and  _306
REMARK  136  A    between atoms: _306  and  _307
REMARK  137  A    between atoms: _310  and  _312
REMARK  138  A    between atoms: _312  and  _313
REMARK  139  A    between atoms: _315  and  _317
REMARK  140  A    between atoms: _317  and  _318
REMARK  141  A    between atoms: _317  and  _320
REMARK  142  A    between atoms: _320  and  _321
REMARK  143  A    between atoms: _321  and  _322
REMARK  144  A    between atoms: _322  and  _323
REMARK  145  A    between atoms: _332  and  _334
REMARK  146  A    between atoms: _334  and  _335
REMARK  147  A    between atoms: _334  and  _337
REMARK  148  A    between atoms: _337  and  _338
REMARK  149  A    between atoms: _343  and  _344
REMARK  150  A    between atoms: _346  and  _348
REMARK  151  A    between atoms: _348  and  _349
REMARK  152  A    between atoms: _348  and  _351
REMARK  153  A    between atoms: _351  and  _352
REMARK  154  A    between atoms: _358  and  _360
REMARK  155  A    between atoms: _360  and  _361
REMARK  156  A    between atoms: _364  and  _366
REMARK  157  A    between atoms: _366  and  _367
REMARK  158  A    between atoms: _366  and  _369
REMARK  159  A    between atoms: _369  and  _370
REMARK  160  A    between atoms: _375  and  _376
REMARK  161  A    between atoms: _378  and  _380
REMARK  162  A    between atoms: _380  and  _381
REMARK  163  A    between atoms: _380  and  _383
REMARK  164  A    between atoms: _383  and  _384
REMARK  165  A    between atoms: _394  and  _396
REMARK  166  A    between atoms: _396  and  _397
REMARK  167  A    between atoms: _399  and  _401
REMARK  168  A    between atoms: _401  and  _402
REMARK  169  A    between atoms: _401  and  _404
REMARK  170  A    between atoms: _404  and  _405
REMARK  171  A    between atoms: _405  and  _406
REMARK  172  A    between atoms: _409  and  _411
REMARK  173  A    between atoms: _411  and  _412
REMARK  174  A    between atoms: _414  and  _416
REMARK  175  A    between atoms: _416  and  _417
REMARK  176  A    between atoms: _416  and  _419
REMARK  177  A    between atoms: _419  and  _420
REMARK  178  A    between atoms: _422  and  _424
REMARK  179  A    between atoms: _424  and  _425
REMARK  180  A    between atoms: _424  and  _427
REMARK  181  A    between atoms: _427  and  _428
REMARK  182  A    between atoms: _430  and  _432
REMARK  183  A    between atoms: _432  and  _433
REMARK  184  A    between atoms: _436  and  _438
REMARK  185  A    between atoms: _438  and  _439
REMARK  186  A    between atoms: _438  and  _441
REMARK  187  A    between atoms: _441  and  _442
REMARK  188  A    between atoms: _442  and  _443
REMARK  189  A    between atoms: _443  and  _444
REMARK  190  A    between atoms: _453  and  _455
REMARK  191  A    between atoms: _455  and  _456
REMARK  192  A    between atoms: _455  and  _458
REMARK  193  A    between atoms: _458  and  _459
REMARK  194  A    between atoms: _464  and  _466
REMARK  195  A    between atoms: _466  and  _467
REMARK  196  A    between atoms: _466  and  _469
REMARK  197  A    between atoms: _469  and  _470
REMARK  198  A    between atoms: _470  and  _471
REMARK  199  A    between atoms: _471  and  _472
REMARK  200  A    between atoms: _481  and  _483
REMARK  201  A    between atoms: _483  and  _484
REMARK  202  A    between atoms: _483  and  _486
REMARK  203  A    between atoms: _486  and  _487
REMARK  204  A    between atoms: _492  and  _493
REMARK  205  A    between atoms: _495  and  _497
REMARK  206  A    between atoms: _497  and  _498
REMARK  207  A    between atoms: _497  and  _500
REMARK  208  A    between atoms: _500  and  _501
REMARK  209  A    between atoms: _504  and  _506
REMARK  210  A    between atoms: _506  and  _507
REMARK  211  A    between atoms: _506  and  _509
REMARK  212  A    between atoms: _509  and  _510
REMARK  213  A    between atoms: _510  and  _511
REMARK  214  A    between atoms: _514  and  _516
REMARK  215  A    between atoms: _516  and  _517
REMARK  216  A    between atoms: _516  and  _519
REMARK  217  A    between atoms: _519  and  _520
REMARK  218  A    between atoms: _520  and  _521
REMARK  219  A    between atoms: _524  and  _526
REMARK  220  A    between atoms: _526  and  _527
REMARK  221  A    between atoms: _529  and  _531
REMARK  222  A    between atoms: _531  and  _532
REMARK  223  A    between atoms: _531  and  _534
REMARK  224  A    between atoms: _537  and  _539
REMARK  225  A    between atoms: _539  and  _540
REMARK  226  A    between atoms: _539  and  _542
REMARK  227  A    between atoms: _542  and  _543
REMARK  228  A    between atoms: _546  and  _548
REMARK  229  A    between atoms: _548  and  _549
REMARK  230  A    between atoms: _548  and  _551
REMARK  231  A    between atoms: _554  and  _556
REMARK  232  A    between atoms: _556  and  _557
REMARK  233  A    between atoms: _556  and  _559
REMARK  234  A    between atoms: _559  and  _560
REMARK  235  A    between atoms: _560  and  _561
REMARK  236  A    between atoms: _564  and  _566
REMARK  237  A    between atoms: _566  and  _567
REMARK  238  A    between atoms: _566  and  _569
REMARK  239  A    between atoms: _569  and  _570
REMARK  240  A    between atoms: _575  and  _577
REMARK  241  A    between atoms: _577  and  _578
REMARK  242  A    between atoms: _577  and  _580
REMARK  243  A    between atoms: _580  and  _581
REMARK  244  A    between atoms: _584  and  _586
REMARK  245  A    between atoms: _586  and  _587
REMARK  246  A    between atoms: _586  and  _589
REMARK                            x       y       z     vdW  Elec       q    Type
REMARK                         _______ _______ _______ _____ _____    ______ ____
ROOT
ATOM      1  O   HOH     1     -30.510  39.990  47.520  0.00  0.00    +0.000 OA
ENDROOT
TORSDOF 0
REMARK  Name = ../refined-set-2016/1pvn/1pvn_pocket.pdb
REMARK  246 active torsions:
REMARK  status: ('A' for Active; 'I' for Inactive)
REMARK    1  A    between atoms: _1  and  _3
REMARK    2  A    between atoms: _3  and  _4
REMARK    3  A    between atoms: _3  and  _6
REMARK    4  A    between atoms: _9  and  _11
REMARK    5  A    between atoms: _11  and  _12
REMARK    6  A    between atoms: _11  and  _14
REMARK    7  A    between atoms: _14  and  _15
REMARK    8  A    between atoms: _17  and  _19
REMARK    9  A    between atoms: _19  and  _20
REMARK   10  A    between atoms: _23  and  _25
REMARK   11  A    between atoms: _25  and  _26
REMARK   12  A    between atoms: _25  and  _28
REMARK   13  A    between atoms: _28  and  _29
REMARK   14  A    between atoms: _32  and  _34
REMARK   15  A    between atoms: _34  and  _35
REMARK   16  A    between atoms: _34  and  _37
REMARK   17  A    between atoms: _37  and  _38
REMARK   18  A    between atoms: _38  and  _39
REMARK   19  A    between atoms: _41  and  _43
REMARK   20  A    between atoms: _43  and  _44
REMARK   21  A    between atoms: _43  and  _46
REMARK   22  A    between atoms: _46  and  _47
REMARK   23  A    between atoms: _47  and  _48
REMARK   24  A    between atoms: _53  and  _55
REMARK   25  A    between atoms: _55  and  _56
REMARK   26  A    between atoms: _55  and  _58
REMARK   27  A    between atoms: _58  and  _59
REMARK   28  A    between atoms: _61  and  _63
REMARK   29  A    between atoms: _63  and  _64
REMARK   30  A    between atoms: _63  and  _66
REMARK   31  A    between atoms: _69  and  _71
REMARK   32  A    between atoms: _71  and  _72
REMARK   33  A    between atoms: _71  and  _74
REMARK   34  A    between atoms: _74  and  _75
REMARK   35  A    between atoms: _78  and  _80
REMARK   36  A    between atoms: _80  and  _81
REMARK   37  A    between atoms: _80  and  _83
REMARK   38  A    between atoms: _83  and  _84
REMARK   39  A    between atoms: _86  and  _88
REMARK   40  A    between atoms: _88  and  _89
REMARK   41  A    between atoms: _88  and  _91
REMARK   42  A    between atoms: _91  and  _92
REMARK   43  A    between atoms: _94  and  _96
REMARK   44  A    between atoms: _96  and  _97
REMARK   45  A    between atoms: _99  and  _101
REMARK   46  A    between atoms: _101  and  _102
REMARK   47  A    between atoms: _101  and  _104
REMARK   48  A    between atoms: _104  and  _105
REMARK   49  A    between atoms: _110  and  _112
REMARK   50  A    between atoms: _112  and  _113
REMARK   51  A    between atoms: _112  and  _115
REMARK   52  A    between atoms: _115  and  _116
REMARK   53  A    between atoms: _116  and  _117
REMARK   54  A    between atoms: _117  and  _118
REMARK   55  A    between atoms: _118  and  _119
REMARK   56  A    between atoms: _123  and  _125
REMARK   57  A    between atoms: _125  and  _126
REMARK   58  A    between atoms: _125  and  _128
REMARK   59  A    between atoms: _128  and  _129
REMARK   60  A    between atoms: _132  and  _134
REMARK   61  A    between atoms: _134  and  _135
REMARK   62  A    between atoms: _137  and  _139
REMARK   63  A    between atoms: _139  and  _140
REMARK   64  A    between atoms: _139  and  _142
REMARK   65  A    between atoms: _142  and  _143
REMARK   66  A    between atoms: _146  and  _148
REMARK   67  A    between atoms: _148  and  _149
REMARK   68  A    between atoms: _151  and  _153
REMARK   69  A    between atoms: _153  and  _154
REMARK   70  A    between atoms: _156  and  _158
REMARK   71  A    between atoms: _158  and  _159
REMARK   72  A    between atoms: _161  and  _163
REMARK   73  A    between atoms: _163  and  _164
REMARK   74  A    between atoms: _163  and  _166
REMARK   75  A    between atoms: _166  and  _167
REMARK   76  A    between atoms: _169  and  _171
REMARK   77  A    between atoms: _171  and  _172
REMARK   78  A    between atoms: _171  and  _174
REMARK   79  A    between atoms: _174  and  _175
REMARK   80  A    between atoms: _178  and  _180
REMARK   81  A    between atoms: _180  and  _181
REMARK   82  A    between atoms: _180  and  _183
REMARK   83  A    between atoms: _185  and  _187
REMARK   84  A    between atoms: _187  and  _188
REMARK   85  A    between atoms: _187  and  _190
REMARK   86  A    between atoms: _190  and  _191
REMARK   87  A    between atoms: _194  and  _196
REMARK   88  A    between atoms: _196  and  _197
REMARK   89  A    between atoms: _196  and  _199
REMARK   90  A    between atoms: _199  and  _200
REMARK   91  A    between atoms: _203  and  _205
REMARK   92  A    between atoms: _205  and  _206
REMARK   93  A    between atoms: _205  and  _208
REMARK   94  A    between atoms: _208  and  _209
REMARK   95  A    between atoms: _209  and  _210
REMARK   96  A    between atoms: _210  and  _211
REMARK   97  A    between atoms: _220  and  _222
REMARK   98  A    between atoms: _222  and  _223
REMARK   99  A    between atoms: _222  and  _225
REMARK  100  A    between atoms: _225  and  _226
REMARK  101  A    between atoms: _226  and  _227
REMARK  102  A    between atoms: _232  and  _234
REMARK  103  A    between atoms: _234  and  _235
REMARK  104  A    between atoms: _234  and  _237
REMARK  105  A    between atoms: _239  and  _241
REMARK  106  A    between atoms: _241  and  _242
REMARK  107  A    between atoms: _241  and  _244
REMARK  108  A    between atoms: _244  and  _245
REMARK  109  A    between atoms: _247  and  _249
REMARK  110  A    between atoms: _249  and  _250
REMARK  111  A    between atoms: _249  and  _252
REMARK  112  A    between atoms: _252  and  _253
REMARK  113  A    between atoms: _256  and  _258
REMARK  114  A    between atoms: _258  and  _259
REMARK  115  A    between atoms: _261  and  _263
REMARK  116  A    between atoms: _263  and  _264
REMARK  117  A    between atoms: _266  and  _268
REMARK  118  A    between atoms: _268  and  _269
REMARK  119  A    between atoms: _268  and  _271
REMARK  120  A    between atoms: _271  and  _272
REMARK  121  A    between atoms: _275  and  _277
REMARK  122  A    between atoms: _277  and  _278
REMARK  123  A    between atoms: _277  and  _280
REMARK  124  A    between atoms: _283  and  _285
REMARK  125  A    between atoms: _285  and  _286
REMARK  126  A    between atoms: _285  and  _288
REMARK  127  A    between atoms: _288  and  _289
REMARK  128  A    between atoms: _292  and  _294
REMARK  129  A    between atoms: _294  and  _295
REMARK  130  A    between atoms: _294  and  _297
REMARK  131  A    between atoms: _297  and  _298
REMARK  132  A    between atoms: _298  and  _299
REMARK  133  A    between atoms: _301  and  _303
REMARK  134  A    between atoms: _303  and  _304
REMARK  135  A    between atoms: _303  and  _306
REMARK  136  A    between atoms: _306  and  _307
REMARK  137  A    between atoms: _310  and  _312
REMARK  138  A    between atoms: _312  and  _313
REMARK  139  A    between atoms: _315  and  _317
REMARK  140  A    between atoms: _317  and  _318
REMARK  141  A    between atoms: _317  and  _320
REMARK  142  A    between atoms: _320  and  _321
REMARK  143  A    between atoms: _321  and  _322
REMARK  144  A    between atoms: _322  and  _323
REMARK  145  A    between atoms: _332  and  _334
REMARK  146  A    between atoms: _334  and  _335
REMARK  147  A    between atoms: _334  and  _337
REMARK  148  A    between atoms: _337  and  _338
REMARK  149  A    between atoms: _343  and  _344
REMARK  150  A    between atoms: _346  and  _348
REMARK  151  A    between atoms: _348  and  _349
REMARK  152  A    between atoms: _348  and  _351
REMARK  153  A    between atoms: _351  and  _352
REMARK  154  A    between atoms: _358  and  _360
REMARK  155  A    between atoms: _360  and  _361
REMARK  156  A    between atoms: _364  and  _366
REMARK  157  A    between atoms: _366  and  _367
REMARK  158  A    between atoms: _366  and  _369
REMARK  159  A    between atoms: _369  and  _370
REMARK  160  A    between atoms: _375  and  _376
REMARK  161  A    between atoms: _378  and  _380
REMARK  162  A    between atoms: _380  and  _381
REMARK  163  A    between atoms: _380  and  _383
REMARK  164  A    between atoms: _383  and  _384
REMARK  165  A    between atoms: _394  and  _396
REMARK  166  A    between atoms: _396  and  _397
REMARK  167  A    between atoms: _399  and  _401
REMARK  168  A    between atoms: _401  and  _402
REMARK  169  A    between atoms: _401  and  _404
REMARK  170  A    between atoms: _404  and  _405
REMARK  171  A    between atoms: _405  and  _406
REMARK  172  A    between atoms: _409  and  _411
REMARK  173  A    between atoms: _411  and  _412
REMARK  174  A    between atoms: _414  and  _416
REMARK  175  A    between atoms: _416  and  _417
REMARK  176  A    between atoms: _416  and  _419
REMARK  177  A    between atoms: _419  and  _420
REMARK  178  A    between atoms: _422  and  _424
REMARK  179  A    between atoms: _424  and  _425
REMARK  180  A    between atoms: _424  and  _427
REMARK  181  A    between atoms: _427  and  _428
REMARK  182  A    between atoms: _430  and  _432
REMARK  183  A    between atoms: _432  and  _433
REMARK  184  A    between atoms: _436  and  _438
REMARK  185  A    between atoms: _438  and  _439
REMARK  186  A    between atoms: _438  and  _441
REMARK  187  A    between atoms: _441  and  _442
REMARK  188  A    between atoms: _442  and  _443
REMARK  189  A    between atoms: _443  and  _444
REMARK  190  A    between atoms: _453  and  _455
REMARK  191  A    between atoms: _455  and  _456
REMARK  192  A    between atoms: _455  and  _458
REMARK  193  A    between atoms: _458  and  _459
REMARK  194  A    between atoms: _464  and  _466
REMARK  195  A    between atoms: _466  and  _467
REMARK  196  A    between atoms: _466  and  _469
REMARK  197  A    between atoms: _469  and  _470
REMARK  198  A    between atoms: _470  and  _471
REMARK  199  A    between atoms: _471  and  _472
REMARK  200  A    between atoms: _481  and  _483
REMARK  201  A    between atoms: _483  and  _484
REMARK  202  A    between atoms: _483  and  _486
REMARK  203  A    between atoms: _486  and  _487
REMARK  204  A    between atoms: _492  and  _493
REMARK  205  A    between atoms: _495  and  _497
REMARK  206  A    between atoms: _497  and  _498
REMARK  207  A    between atoms: _497  and  _500
REMARK  208  A    between atoms: _500  and  _501
REMARK  209  A    between atoms: _504  and  _506
REMARK  210  A    between atoms: _506  and  _507
REMARK  211  A    between atoms: _506  and  _509
REMARK  212  A    between atoms: _509  and  _510
REMARK  213  A    between atoms: _510  and  _511
REMARK  214  A    between atoms: _514  and  _516
REMARK  215  A    between atoms: _516  and  _517
REMARK  216  A    between atoms: _516  and  _519
REMARK  217  A    between atoms: _519  and  _520
REMARK  218  A    between atoms: _520  and  _521
REMARK  219  A    between atoms: _524  and  _526
REMARK  220  A    between atoms: _526  and  _527
REMARK  221  A    between atoms: _529  and  _531
REMARK  222  A    between atoms: _531  and  _532
REMARK  223  A    between atoms: _531  and  _534
REMARK  224  A    between atoms: _537  and  _539
REMARK  225  A    between atoms: _539  and  _540
REMARK  226  A    between atoms: _539  and  _542
REMARK  227  A    between atoms: _542  and  _543
REMARK  228  A    between atoms: _546  and  _548
REMARK  229  A    between atoms: _548  and  _549
REMARK  230  A    between atoms: _548  and  _551
REMARK  231  A    between atoms: _554  and  _556
REMARK  232  A    between atoms: _556  and  _557
REMARK  233  A    between atoms: _556  and  _559
REMARK  234  A    between atoms: _559  and  _560
REMARK  235  A    between atoms: _560  and  _561
REMARK  236  A    between atoms: _564  and  _566
REMARK  237  A    between atoms: _566  and  _567
REMARK  238  A    between atoms: _566  and  _569
REMARK  239  A    between atoms: _569  and  _570
REMARK  240  A    between atoms: _575  and  _577
REMARK  241  A    between atoms: _577  and  _578
REMARK  242  A    between atoms: _577  and  _580
REMARK  243  A    between atoms: _580  and  _581
REMARK  244  A    between atoms: _584  and  _586
REMARK  245  A    between atoms: _586  and  _587
REMARK  246  A    between atoms: _586  and  _589
REMARK                            x       y       z     vdW  Elec       q    Type
REMARK                         _______ _______ _______ _____ _____    ______ ____
ROOT
ATOM      1  O   HOH     1     -17.187  32.059  52.579  0.00  0.00    +0.000 OA
ENDROOT
TORSDOF 0
REMARK  Name = ../refined-set-2016/1pvn/1pvn_pocket.pdb
REMARK  246 active torsions:
REMARK  status: ('A' for Active; 'I' for Inactive)
REMARK    1  A    between atoms: _1  and  _3
REMARK    2  A    between atoms: _3  and  _4
REMARK    3  A    between atoms: _3  and  _6
REMARK    4  A    between atoms: _9  and  _11
REMARK    5  A    between atoms: _11  and  _12
REMARK    6  A    between atoms: _11  and  _14
REMARK    7  A    between atoms: _14  and  _15
REMARK    8  A    between atoms: _17  and  _19
REMARK    9  A    between atoms: _19  and  _20
REMARK   10  A    between atoms: _23  and  _25
REMARK   11  A    between atoms: _25  and  _26
REMARK   12  A    between atoms: _25  and  _28
REMARK   13  A    between atoms: _28  and  _29
REMARK   14  A    between atoms: _32  and  _34
REMARK   15  A    between atoms: _34  and  _35
REMARK   16  A    between atoms: _34  and  _37
REMARK   17  A    between atoms: _37  and  _38
REMARK   18  A    between atoms: _38  and  _39
REMARK   19  A    between atoms: _41  and  _43
REMARK   20  A    between atoms: _43  and  _44
REMARK   21  A    between atoms: _43  and  _46
REMARK   22  A    between atoms: _46  and  _47
REMARK   23  A    between atoms: _47  and  _48
REMARK   24  A    between atoms: _53  and  _55
REMARK   25  A    between atoms: _55  and  _56
REMARK   26  A    between atoms: _55  and  _58
REMARK   27  A    between atoms: _58  and  _59
REMARK   28  A    between atoms: _61  and  _63
REMARK   29  A    between atoms: _63  and  _64
REMARK   30  A    between atoms: _63  and  _66
REMARK   31  A    between atoms: _69  and  _71
REMARK   32  A    between atoms: _71  and  _72
REMARK   33  A    between atoms: _71  and  _74
REMARK   34  A    between atoms: _74  and  _75
REMARK   35  A    between atoms: _78  and  _80
REMARK   36  A    between atoms: _80  and  _81
REMARK   37  A    between atoms: _80  and  _83
REMARK   38  A    between atoms: _83  and  _84
REMARK   39  A    between atoms: _86  and  _88
REMARK   40  A    between atoms: _88  and  _89
REMARK   41  A    between atoms: _88  and  _91
REMARK   42  A    between atoms: _91  and  _92
REMARK   43  A    between atoms: _94  and  _96
REMARK   44  A    between atoms: _96  and  _97
REMARK   45  A    between atoms: _99  and  _101
REMARK   46  A    between atoms: _101  and  _102
REMARK   47  A    between atoms: _101  and  _104
REMARK   48  A    between atoms: _104  and  _105
REMARK   49  A    between atoms: _110  and  _112
REMARK   50  A    between atoms: _112  and  _113
REMARK   51  A    between atoms: _112  and  _115
REMARK   52  A    between atoms: _115  and  _116
REMARK   53  A    between atoms: _116  and  _117
REMARK   54  A    between atoms: _117  and  _118
REMARK   55  A    between atoms: _118  and  _119
REMARK   56  A    between atoms: _123  and  _125
REMARK   57  A    between atoms: _125  and  _126
REMARK   58  A    between atoms: _125  and  _128
REMARK   59  A    between atoms: _128  and  _129
REMARK   60  A    between atoms: _132  and  _134
REMARK   61  A    between atoms: _134  and  _135
REMARK   62  A    between atoms: _137  and  _139
REMARK   63  A    between atoms: _139  and  _140
REMARK   64  A    between atoms: _139  and  _142
REMARK   65  A    between atoms: _142  and  _143
REMARK   66  A    between atoms: _146  and  _148
REMARK   67  A    between atoms: _148  and  _149
REMARK   68  A    between atoms: _151  and  _153
REMARK   69  A    between atoms: _153  and  _154
REMARK   70  A    between atoms: _156  and  _158
REMARK   71  A    between atoms: _158  and  _159
REMARK   72  A    between atoms: _161  and  _163
REMARK   73  A    between atoms: _163  and  _164
REMARK   74  A    between atoms: _163  and  _166
REMARK   75  A    between atoms: _166  and  _167
REMARK   76  A    between atoms: _169  and  _171
REMARK   77  A    between atoms: _171  and  _172
REMARK   78  A    between atoms: _171  and  _174
REMARK   79  A    between atoms: _174  and  _175
REMARK   80  A    between atoms: _178  and  _180
REMARK   81  A    between atoms: _180  and  _181
REMARK   82  A    between atoms: _180  and  _183
REMARK   83  A    between atoms: _185  and  _187
REMARK   84  A    between atoms: _187  and  _188
REMARK   85  A    between atoms: _187  and  _190
REMARK   86  A    between atoms: _190  and  _191
REMARK   87  A    between atoms: _194  and  _196
REMARK   88  A    between atoms: _196  and  _197
REMARK   89  A    between atoms: _196  and  _199
REMARK   90  A    between atoms: _199  and  _200
REMARK   91  A    between atoms: _203  and  _205
REMARK   92  A    between atoms: _205  and  _206
REMARK   93  A    between atoms: _205  and  _208
REMARK   94  A    between atoms: _208  and  _209
REMARK   95  A    between atoms: _209  and  _210
REMARK   96  A    between atoms: _210  and  _211
REMARK   97  A    between atoms: _220  and  _222
REMARK   98  A    between atoms: _222  and  _223
REMARK   99  A    between atoms: _222  and  _225
REMARK  100  A    between atoms: _225  and  _226
REMARK  101  A    between atoms: _226  and  _227
REMARK  102  A    between atoms: _232  and  _234
REMARK  103  A    between atoms: _234  and  _235
REMARK  104  A    between atoms: _234  and  _237
REMARK  105  A    between atoms: _239  and  _241
REMARK  106  A    between atoms: _241  and  _242
REMARK  107  A    between atoms: _241  and  _244
REMARK  108  A    between atoms: _244  and  _245
REMARK  109  A    between atoms: _247  and  _249
REMARK  110  A    between atoms: _249  and  _250
REMARK  111  A    between atoms: _249  and  _252
REMARK  112  A    between atoms: _252  and  _253
REMARK  113  A    between atoms: _256  and  _258
REMARK  114  A    between atoms: _258  and  _259
REMARK  115  A    between atoms: _261  and  _263
REMARK  116  A    between atoms: _263  and  _264
REMARK  117  A    between atoms: _266  and  _268
REMARK  118  A    between atoms: _268  and  _269
REMARK  119  A    between atoms: _268  and  _271
REMARK  120  A    between atoms: _271  and  _272
REMARK  121  A    between atoms: _275  and  _277
REMARK  122  A    between atoms: _277  and  _278
REMARK  123  A    between atoms: _277  and  _280
REMARK  124  A    between atoms: _283  and  _285
REMARK  125  A    between atoms: _285  and  _286
REMARK  126  A    between atoms: _285  and  _288
REMARK  127  A    between atoms: _288  and  _289
REMARK  128  A    between atoms: _292  and  _294
REMARK  129  A    between atoms: _294  and  _295
REMARK  130  A    between atoms: _294  and  _297
REMARK  131  A    between atoms: _297  and  _298
REMARK  132  A    between atoms: _298  and  _299
REMARK  133  A    between atoms: _301  and  _303
REMARK  134  A    between atoms: _303  and  _304
REMARK  135  A    between atoms: _303  and  _306
REMARK  136  A    between atoms: _306  and  _307
REMARK  137  A    between atoms: _310  and  _312
REMARK  138  A    between atoms: _312  and  _313
REMARK  139  A    between atoms: _315  and  _317
REMARK  140  A    between atoms: _317  and  _318
REMARK  141  A    between atoms: _317  and  _320
REMARK  142  A    between atoms: _320  and  _321
REMARK  143  A    between atoms: _321  and  _322
REMARK  144  A    between atoms: _322  and  _323
REMARK  145  A    between atoms: _332  and  _334
REMARK  146  A    between atoms: _334  and  _335
REMARK  147  A    between atoms: _334  and  _337
REMARK  148  A    between atoms: _337  and  _338
REMARK  149  A    between atoms: _343  and  _344
REMARK  150  A    between atoms: _346  and  _348
REMARK  151  A    between atoms: _348  and  _349
REMARK  152  A    between atoms: _348  and  _351
REMARK  153  A    between atoms: _351  and  _352
REMARK  154  A    between atoms: _358  and  _360
REMARK  155  A    between atoms: _360  and  _361
REMARK  156  A    between atoms: _364  and  _366
REMARK  157  A    between atoms: _366  and  _367
REMARK  158  A    between atoms: _366  and  _369
REMARK  159  A    between atoms: _369  and  _370
REMARK  160  A    between atoms: _375  and  _376
REMARK  161  A    between atoms: _378  and  _380
REMARK  162  A    between atoms: _380  and  _381
REMARK  163  A    between atoms: _380  and  _383
REMARK  164  A    between atoms: _383  and  _384
REMARK  165  A    between atoms: _394  and  _396
REMARK  166  A    between atoms: _396  and  _397
REMARK  167  A    between atoms: _399  and  _401
REMARK  168  A    between atoms: _401  and  _402
REMARK  169  A    between atoms: _401  and  _404
REMARK  170  A    between atoms: _404  and  _405
REMARK  171  A    between atoms: _405  and  _406
REMARK  172  A    between atoms: _409  and  _411
REMARK  173  A    between atoms: _411  and  _412
REMARK  174  A    between atoms: _414  and  _416
REMARK  175  A    between atoms: _416  and  _417
REMARK  176  A    between atoms: _416  and  _419
REMARK  177  A    between atoms: _419  and  _420
REMARK  178  A    between atoms: _422  and  _424
REMARK  179  A    between atoms: _424  and  _425
REMARK  180  A    between atoms: _424  and  _427
REMARK  181  A    between atoms: _427  and  _428
REMARK  182  A    between atoms: _430  and  _432
REMARK  183  A    between atoms: _432  and  _433
REMARK  184  A    between atoms: _436  and  _438
REMARK  185  A    between atoms: _438  and  _439
REMARK  186  A    between atoms: _438  and  _441
REMARK  187  A    between atoms: _441  and  _442
REMARK  188  A    between atoms: _442  and  _443
REMARK  189  A    between atoms: _443  and  _444
REMARK  190  A    between atoms: _453  and  _455
REMARK  191  A    between atoms: _455  and  _456
REMARK  192  A    between atoms: _455  and  _458
REMARK  193  A    between atoms: _458  and  _459
REMARK  194  A    between atoms: _464  and  _466
REMARK  195  A    between atoms: _466  and  _467
REMARK  196  A    between atoms: _466  and  _469
REMARK  197  A    between atoms: _469  and  _470
REMARK  198  A    between atoms: _470  and  _471
REMARK  199  A    between atoms: _471  and  _472
REMARK  200  A    between atoms: _481  and  _483
REMARK  201  A    between atoms: _483  and  _484
REMARK  202  A    between atoms: _483  and  _486
REMARK  203  A    between atoms: _486  and  _487
REMARK  204  A    between atoms: _492  and  _493
REMARK  205  A    between atoms: _495  and  _497
REMARK  206  A    between atoms: _497  and  _498
REMARK  207  A    between atoms: _497  and  _500
REMARK  208  A    between atoms: _500  and  _501
REMARK  209  A    between atoms: _504  and  _506
REMARK  210  A    between atoms: _506  and  _507
REMARK  211  A    between atoms: _506  and  _509
REMARK  212  A    between atoms: _509  and  _510
REMARK  213  A    between atoms: _510  and  _511
REMARK  214  A    between atoms: _514  and  _516
REMARK  215  A    between atoms: _516  and  _517
REMARK  216  A    between atoms: _516  and  _519
REMARK  217  A    between atoms: _519  and  _520
REMARK  218  A    between atoms: _520  and  _521
REMARK  219  A    between atoms: _524  and  _526
REMARK  220  A    between atoms: _526  and  _527
REMARK  221  A    between atoms: _529  and  _531
REMARK  222  A    between atoms: _531  and  _532
REMARK  223  A    between atoms: _531  and  _534
REMARK  224  A    between atoms: _537  and  _539
REMARK  225  A    between atoms: _539  and  _540
REMARK  226  A    between atoms: _539  and  _542
REMARK  227  A    between atoms: _542  and  _543
REMARK  228  A    between atoms: _546  and  _548
REMARK  229  A    between atoms: _548  and  _549
REMARK  230  A    between atoms: _548  and  _551
REMARK  231  A    between atoms: _554  and  _556
REMARK  232  A    between atoms: _556  and  _557
REMARK  233  A    between atoms: _556  and  _559
REMARK  234  A    between atoms: _559  and  _560
REMARK  235  A    between atoms: _560  and  _561
REMARK  236  A    between atoms: _564  and  _566
REMARK  237  A    between atoms: _566  and  _567
REMARK  238  A    between atoms: _566  and  _569
REMARK  239  A    between atoms: _569  and  _570
REMARK  240  A    between atoms: _575  and  _577
REMARK  241  A    between atoms: _577  and  _578
REMARK  242  A    between atoms: _577  and  _580
REMARK  243  A    between atoms: _580  and  _581
REMARK  244  A    between atoms: _584  and  _586
REMARK  245  A    between atoms: _586  and  _587
REMARK  246  A    between atoms: _586  and  _589
REMARK                            x       y       z     vdW  Elec       q    Type
REMARK                         _______ _______ _______ _____ _____    ______ ____
ROOT
ATOM      1  O   HOH     1     -26.018  38.544  39.647  0.00  0.00    +0.000 OA
ENDROOT
TORSDOF 0
REMARK  Name = ../refined-set-2016/1pvn/1pvn_pocket.pdb
REMARK  246 active torsions:
REMARK  status: ('A' for Active; 'I' for Inactive)
REMARK    1  A    between atoms: _1  and  _3
REMARK    2  A    between atoms: _3  and  _4
REMARK    3  A    between atoms: _3  and  _6
REMARK    4  A    between atoms: _9  and  _11
REMARK    5  A    between atoms: _11  and  _12
REMARK    6  A    between atoms: _11  and  _14
REMARK    7  A    between atoms: _14  and  _15
REMARK    8  A    between atoms: _17  and  _19
REMARK    9  A    between atoms: _19  and  _20
REMARK   10  A    between atoms: _23  and  _25
REMARK   11  A    between atoms: _25  and  _26
REMARK   12  A    between atoms: _25  and  _28
REMARK   13  A    between atoms: _28  and  _29
REMARK   14  A    between atoms: _32  and  _34
REMARK   15  A    between atoms: _34  and  _35
REMARK   16  A    between atoms: _34  and  _37
REMARK   17  A    between atoms: _37  and  _38
REMARK   18  A    between atoms: _38  and  _39
REMARK   19  A    between atoms: _41  and  _43
REMARK   20  A    between atoms: _43  and  _44
REMARK   21  A    between atoms: _43  and  _46
REMARK   22  A    between atoms: _46  and  _47
REMARK   23  A    between atoms: _47  and  _48
REMARK   24  A    between atoms: _53  and  _55
REMARK   25  A    between atoms: _55  and  _56
REMARK   26  A    between atoms: _55  and  _58
REMARK   27  A    between atoms: _58  and  _59
REMARK   28  A    between atoms: _61  and  _63
REMARK   29  A    between atoms: _63  and  _64
REMARK   30  A    between atoms: _63  and  _66
REMARK   31  A    between atoms: _69  and  _71
REMARK   32  A    between atoms: _71  and  _72
REMARK   33  A    between atoms: _71  and  _74
REMARK   34  A    between atoms: _74  and  _75
REMARK   35  A    between atoms: _78  and  _80
REMARK   36  A    between atoms: _80  and  _81
REMARK   37  A    between atoms: _80  and  _83
REMARK   38  A    between atoms: _83  and  _84
REMARK   39  A    between atoms: _86  and  _88
REMARK   40  A    between atoms: _88  and  _89
REMARK   41  A    between atoms: _88  and  _91
REMARK   42  A    between atoms: _91  and  _92
REMARK   43  A    between atoms: _94  and  _96
REMARK   44  A    between atoms: _96  and  _97
REMARK   45  A    between atoms: _99  and  _101
REMARK   46  A    between atoms: _101  and  _102
REMARK   47  A    between atoms: _101  and  _104
REMARK   48  A    between atoms: _104  and  _105
REMARK   49  A    between atoms: _110  and  _112
REMARK   50  A    between atoms: _112  and  _113
REMARK   51  A    between atoms: _112  and  _115
REMARK   52  A    between atoms: _115  and  _116
REMARK   53  A    between atoms: _116  and  _117
REMARK   54  A    between atoms: _117  and  _118
REMARK   55  A    between atoms: _118  and  _119
REMARK   56  A    between atoms: _123  and  _125
REMARK   57  A    between atoms: _125  and  _126
REMARK   58  A    between atoms: _125  and  _128
REMARK   59  A    between atoms: _128  and  _129
REMARK   60  A    between atoms: _132  and  _134
REMARK   61  A    between atoms: _134  and  _135
REMARK   62  A    between atoms: _137  and  _139
REMARK   63  A    between atoms: _139  and  _140
REMARK   64  A    between atoms: _139  and  _142
REMARK   65  A    between atoms: _142  and  _143
REMARK   66  A    between atoms: _146  and  _148
REMARK   67  A    between atoms: _148  and  _149
REMARK   68  A    between atoms: _151  and  _153
REMARK   69  A    between atoms: _153  and  _154
REMARK   70  A    between atoms: _156  and  _158
REMARK   71  A    between atoms: _158  and  _159
REMARK   72  A    between atoms: _161  and  _163
REMARK   73  A    between atoms: _163  and  _164
REMARK   74  A    between atoms: _163  and  _166
REMARK   75  A    between atoms: _166  and  _167
REMARK   76  A    between atoms: _169  and  _171
REMARK   77  A    between atoms: _171  and  _172
REMARK   78  A    between atoms: _171  and  _174
REMARK   79  A    between atoms: _174  and  _175
REMARK   80  A    between atoms: _178  and  _180
REMARK   81  A    between atoms: _180  and  _181
REMARK   82  A    between atoms: _180  and  _183
REMARK   83  A    between atoms: _185  and  _187
REMARK   84  A    between atoms: _187  and  _188
REMARK   85  A    between atoms: _187  and  _190
REMARK   86  A    between atoms: _190  and  _191
REMARK   87  A    between atoms: _194  and  _196
REMARK   88  A    between atoms: _196  and  _197
REMARK   89  A    between atoms: _196  and  _199
REMARK   90  A    between atoms: _199  and  _200
REMARK   91  A    between atoms: _203  and  _205
REMARK   92  A    between atoms: _205  and  _206
REMARK   93  A    between atoms: _205  and  _208
REMARK   94  A    between atoms: _208  and  _209
REMARK   95  A    between atoms: _209  and  _210
REMARK   96  A    between atoms: _210  and  _211
REMARK   97  A    between atoms: _220  and  _222
REMARK   98  A    between atoms: _222  and  _223
REMARK   99  A    between atoms: _222  and  _225
REMARK  100  A    between atoms: _225  and  _226
REMARK  101  A    between atoms: _226  and  _227
REMARK  102  A    between atoms: _232  and  _234
REMARK  103  A    between atoms: _234  and  _235
REMARK  104  A    between atoms: _234  and  _237
REMARK  105  A    between atoms: _239  and  _241
REMARK  106  A    between atoms: _241  and  _242
REMARK  107  A    between atoms: _241  and  _244
REMARK  108  A    between atoms: _244  and  _245
REMARK  109  A    between atoms: _247  and  _249
REMARK  110  A    between atoms: _249  and  _250
REMARK  111  A    between atoms: _249  and  _252
REMARK  112  A    between atoms: _252  and  _253
REMARK  113  A    between atoms: _256  and  _258
REMARK  114  A    between atoms: _258  and  _259
REMARK  115  A    between atoms: _261  and  _263
REMARK  116  A    between atoms: _263  and  _264
REMARK  117  A    between atoms: _266  and  _268
REMARK  118  A    between atoms: _268  and  _269
REMARK  119  A    between atoms: _268  and  _271
REMARK  120  A    between atoms: _271  and  _272
REMARK  121  A    between atoms: _275  and  _277
REMARK  122  A    between atoms: _277  and  _278
REMARK  123  A    between atoms: _277  and  _280
REMARK  124  A    between atoms: _283  and  _285
REMARK  125  A    between atoms: _285  and  _286
REMARK  126  A    between atoms: _285  and  _288
REMARK  127  A    between atoms: _288  and  _289
REMARK  128  A    between atoms: _292  and  _294
REMARK  129  A    between atoms: _294  and  _295
REMARK  130  A    between atoms: _294  and  _297
REMARK  131  A    between atoms: _297  and  _298
REMARK  132  A    between atoms: _298  and  _299
REMARK  133  A    between atoms: _301  and  _303
REMARK  134  A    between atoms: _303  and  _304
REMARK  135  A    between atoms: _303  and  _306
REMARK  136  A    between atoms: _306  and  _307
REMARK  137  A    between atoms: _310  and  _312
REMARK  138  A    between atoms: _312  and  _313
REMARK  139  A    between atoms: _315  and  _317
REMARK  140  A    between atoms: _317  and  _318
REMARK  141  A    between atoms: _317  and  _320
REMARK  142  A    between atoms: _320  and  _321
REMARK  143  A    between atoms: _321  and  _322
REMARK  144  A    between atoms: _322  and  _323
REMARK  145  A    between atoms: _332  and  _334
REMARK  146  A    between atoms: _334  and  _335
REMARK  147  A    between atoms: _334  and  _337
REMARK  148  A    between atoms: _337  and  _338
REMARK  149  A    between atoms: _343  and  _344
REMARK  150  A    between atoms: _346  and  _348
REMARK  151  A    between atoms: _348  and  _349
REMARK  152  A    between atoms: _348  and  _351
REMARK  153  A    between atoms: _351  and  _352
REMARK  154  A    between atoms: _358  and  _360
REMARK  155  A    between atoms: _360  and  _361
REMARK  156  A    between atoms: _364  and  _366
REMARK  157  A    between atoms: _366  and  _367
REMARK  158  A    between atoms: _366  and  _369
REMARK  159  A    between atoms: _369  and  _370
REMARK  160  A    between atoms: _375  and  _376
REMARK  161  A    between atoms: _378  and  _380
REMARK  162  A    between atoms: _380  and  _381
REMARK  163  A    between atoms: _380  and  _383
REMARK  164  A    between atoms: _383  and  _384
REMARK  165  A    between atoms: _394  and  _396
REMARK  166  A    between atoms: _396  and  _397
REMARK  167  A    between atoms: _399  and  _401
REMARK  168  A    between atoms: _401  and  _402
REMARK  169  A    between atoms: _401  and  _404
REMARK  170  A    between atoms: _404  and  _405
REMARK  171  A    between atoms: _405  and  _406
REMARK  172  A    between atoms: _409  and  _411
REMARK  173  A    between atoms: _411  and  _412
REMARK  174  A    between atoms: _414  and  _416
REMARK  175  A    between atoms: _416  and  _417
REMARK  176  A    between atoms: _416  and  _419
REMARK  177  A    between atoms: _419  and  _420
REMARK  178  A    between atoms: _422  and  _424
REMARK  179  A    between atoms: _424  and  _425
REMARK  180  A    between atoms: _424  and  _427
REMARK  181  A    between atoms: _427  and  _428
REMARK  182  A    between atoms: _430  and  _432
REMARK  183  A    between atoms: _432  and  _433
REMARK  184  A    between atoms: _436  and  _438
REMARK  185  A    between atoms: _438  and  _439
REMARK  186  A    between atoms: _438  and  _441
REMARK  187  A    between atoms: _441  and  _442
REMARK  188  A    between atoms: _442  and  _443
REMARK  189  A    between atoms: _443  and  _444
REMARK  190  A    between atoms: _453  and  _455
REMARK  191  A    between atoms: _455  and  _456
REMARK  192  A    between atoms: _455  and  _458
REMARK  193  A    between atoms: _458  and  _459
REMARK  194  A    between atoms: _464  and  _466
REMARK  195  A    between atoms: _466  and  _467
REMARK  196  A    between atoms: _466  and  _469
REMARK  197  A    between atoms: _469  and  _470
REMARK  198  A    between atoms: _470  and  _471
REMARK  199  A    between atoms: _471  and  _472
REMARK  200  A    between atoms: _481  and  _483
REMARK  201  A    between atoms: _483  and  _484
REMARK  202  A    between atoms: _483  and  _486
REMARK  203  A    between atoms: _486  and  _487
REMARK  204  A    between atoms: _492  and  _493
REMARK  205  A    between atoms: _495  and  _497
REMARK  206  A    between atoms: _497  and  _498
REMARK  207  A    between atoms: _497  and  _500
REMARK  208  A    between atoms: _500  and  _501
REMARK  209  A    between atoms: _504  and  _506
REMARK  210  A    between atoms: _506  and  _507
REMARK  211  A    between atoms: _506  and  _509
REMARK  212  A    between atoms: _509  and  _510
REMARK  213  A    between atoms: _510  and  _511
REMARK  214  A    between atoms: _514  and  _516
REMARK  215  A    between atoms: _516  and  _517
REMARK  216  A    between atoms: _516  and  _519
REMARK  217  A    between atoms: _519  and  _520
REMARK  218  A    between atoms: _520  and  _521
REMARK  219  A    between atoms: _524  and  _526
REMARK  220  A    between atoms: _526  and  _527
REMARK  221  A    between atoms: _529  and  _531
REMARK  222  A    between atoms: _531  and  _532
REMARK  223  A    between atoms: _531  and  _534
REMARK  224  A    between atoms: _537  and  _539
REMARK  225  A    between atoms: _539  and  _540
REMARK  226  A    between atoms: _539  and  _542
REMARK  227  A    between atoms: _542  and  _543
REMARK  228  A    between atoms: _546  and  _548
REMARK  229  A    between atoms: _548  and  _549
REMARK  230  A    between atoms: _548  and  _551
REMARK  231  A    between atoms: _554  and  _556
REMARK  232  A    between atoms: _556  and  _557
REMARK  233  A    between atoms: _556  and  _559
REMARK  234  A    between atoms: _559  and  _560
REMARK  235  A    between atoms: _560  and  _561
REMARK  236  A    between atoms: _564  and  _566
REMARK  237  A    between atoms: _566  and  _567
REMARK  238  A    between atoms: _566  and  _569
REMARK  239  A    between atoms: _569  and  _570
REMARK  240  A    between atoms: _575  and  _577
REMARK  241  A    between atoms: _577  and  _578
REMARK  242  A    between atoms: _577  and  _580
REMARK  243  A    between atoms: _580  and  _581
REMARK  244  A    between atoms: _584  and  _586
REMARK  245  A    between atoms: _586  and  _587
REMARK  246  A    between atoms: _586  and  _589
REMARK                            x       y       z     vdW  Elec       q    Type
REMARK                         _______ _______ _______ _____ _____    ______ ____
ROOT
ATOM      1  O   HOH     1     -28.420  41.265  45.102  0.00  0.00    +0.000 OA
ENDROOT
TORSDOF 0
REMARK  Name = ../refined-set-2016/1pvn/1pvn_pocket.pdb
REMARK  246 active torsions:
REMARK  status: ('A' for Active; 'I' for Inactive)
REMARK    1  A    between atoms: _1  and  _3
REMARK    2  A    between atoms: _3  and  _4
REMARK    3  A    between atoms: _3  and  _6
REMARK    4  A    between atoms: _9  and  _11
REMARK    5  A    between atoms: _11  and  _12
REMARK    6  A    between atoms: _11  and  _14
REMARK    7  A    between atoms: _14  and  _15
REMARK    8  A    between atoms: _17  and  _19
REMARK    9  A    between atoms: _19  and  _20
REMARK   10  A    between atoms: _23  and  _25
REMARK   11  A    between atoms: _25  and  _26
REMARK   12  A    between atoms: _25  and  _28
REMARK   13  A    between atoms: _28  and  _29
REMARK   14  A    between atoms: _32  and  _34
REMARK   15  A    between atoms: _34  and  _35
REMARK   16  A    between atoms: _34  and  _37
REMARK   17  A    between atoms: _37  and  _38
REMARK   18  A    between atoms: _38  and  _39
REMARK   19  A    between atoms: _41  and  _43
REMARK   20  A    between atoms: _43  and  _44
REMARK   21  A    between atoms: _43  and  _46
REMARK   22  A    between atoms: _46  and  _47
REMARK   23  A    between atoms: _47  and  _48
REMARK   24  A    between atoms: _53  and  _55
REMARK   25  A    between atoms: _55  and  _56
REMARK   26  A    between atoms: _55  and  _58
REMARK   27  A    between atoms: _58  and  _59
REMARK   28  A    between atoms: _61  and  _63
REMARK   29  A    between atoms: _63  and  _64
REMARK   30  A    between atoms: _63  and  _66
REMARK   31  A    between atoms: _69  and  _71
REMARK   32  A    between atoms: _71  and  _72
REMARK   33  A    between atoms: _71  and  _74
REMARK   34  A    between atoms: _74  and  _75
REMARK   35  A    between atoms: _78  and  _80
REMARK   36  A    between atoms: _80  and  _81
REMARK   37  A    between atoms: _80  and  _83
REMARK   38  A    between atoms: _83  and  _84
REMARK   39  A    between atoms: _86  and  _88
REMARK   40  A    between atoms: _88  and  _89
REMARK   41  A    between atoms: _88  and  _91
REMARK   42  A    between atoms: _91  and  _92
REMARK   43  A    between atoms: _94  and  _96
REMARK   44  A    between atoms: _96  and  _97
REMARK   45  A    between atoms: _99  and  _101
REMARK   46  A    between atoms: _101  and  _102
REMARK   47  A    between atoms: _101  and  _104
REMARK   48  A    between atoms: _104  and  _105
REMARK   49  A    between atoms: _110  and  _112
REMARK   50  A    between atoms: _112  and  _113
REMARK   51  A    between atoms: _112  and  _115
REMARK   52  A    between atoms: _115  and  _116
REMARK   53  A    between atoms: _116  and  _117
REMARK   54  A    between atoms: _117  and  _118
REMARK   55  A    between atoms: _118  and  _119
REMARK   56  A    between atoms: _123  and  _125
REMARK   57  A    between atoms: _125  and  _126
REMARK   58  A    between atoms: _125  and  _128
REMARK   59  A    between atoms: _128  and  _129
REMARK   60  A    between atoms: _132  and  _134
REMARK   61  A    between atoms: _134  and  _135
REMARK   62  A    between atoms: _137  and  _139
REMARK   63  A    between atoms: _139  and  _140
REMARK   64  A    between atoms: _139  and  _142
REMARK   65  A    between atoms: _142  and  _143
REMARK   66  A    between atoms: _146  and  _148
REMARK   67  A    between atoms: _148  and  _149
REMARK   68  A    between atoms: _151  and  _153
REMARK   69  A    between atoms: _153  and  _154
REMARK   70  A    between atoms: _156  and  _158
REMARK   71  A    between atoms: _158  and  _159
REMARK   72  A    between atoms: _161  and  _163
REMARK   73  A    between atoms: _163  and  _164
REMARK   74  A    between atoms: _163  and  _166
REMARK   75  A    between atoms: _166  and  _167
REMARK   76  A    between atoms: _169  and  _171
REMARK   77  A    between atoms: _171  and  _172
REMARK   78  A    between atoms: _171  and  _174
REMARK   79  A    between atoms: _174  and  _175
REMARK   80  A    between atoms: _178  and  _180
REMARK   81  A    between atoms: _180  and  _181
REMARK   82  A    between atoms: _180  and  _183
REMARK   83  A    between atoms: _185  and  _187
REMARK   84  A    between atoms: _187  and  _188
REMARK   85  A    between atoms: _187  and  _190
REMARK   86  A    between atoms: _190  and  _191
REMARK   87  A    between atoms: _194  and  _196
REMARK   88  A    between atoms: _196  and  _197
REMARK   89  A    between atoms: _196  and  _199
REMARK   90  A    between atoms: _199  and  _200
REMARK   91  A    between atoms: _203  and  _205
REMARK   92  A    between atoms: _205  and  _206
REMARK   93  A    between atoms: _205  and  _208
REMARK   94  A    between atoms: _208  and  _209
REMARK   95  A    between atoms: _209  and  _210
REMARK   96  A    between atoms: _210  and  _211
REMARK   97  A    between atoms: _220  and  _222
REMARK   98  A    between atoms: _222  and  _223
REMARK   99  A    between atoms: _222  and  _225
REMARK  100  A    between atoms: _225  and  _226
REMARK  101  A    between atoms: _226  and  _227
REMARK  102  A    between atoms: _232  and  _234
REMARK  103  A    between atoms: _234  and  _235
REMARK  104  A    between atoms: _234  and  _237
REMARK  105  A    between atoms: _239  and  _241
REMARK  106  A    between atoms: _241  and  _242
REMARK  107  A    between atoms: _241  and  _244
REMARK  108  A    between atoms: _244  and  _245
REMARK  109  A    between atoms: _247  and  _249
REMARK  110  A    between atoms: _249  and  _250
REMARK  111  A    between atoms: _249  and  _252
REMARK  112  A    between atoms: _252  and  _253
REMARK  113  A    between atoms: _256  and  _258
REMARK  114  A    between atoms: _258  and  _259
REMARK  115  A    between atoms: _261  and  _263
REMARK  116  A    between atoms: _263  and  _264
REMARK  117  A    between atoms: _266  and  _268
REMARK  118  A    between atoms: _268  and  _269
REMARK  119  A    between atoms: _268  and  _271
REMARK  120  A    between atoms: _271  and  _272
REMARK  121  A    between atoms: _275  and  _277
REMARK  122  A    between atoms: _277  and  _278
REMARK  123  A    between atoms: _277  and  _280
REMARK  124  A    between atoms: _283  and  _285
REMARK  125  A    between atoms: _285  and  _286
REMARK  126  A    between atoms: _285  and  _288
REMARK  127  A    between atoms: _288  and  _289
REMARK  128  A    between atoms: _292  and  _294
REMARK  129  A    between atoms: _294  and  _295
REMARK  130  A    between atoms: _294  and  _297
REMARK  131  A    between atoms: _297  and  _298
REMARK  132  A    between atoms: _298  and  _299
REMARK  133  A    between atoms: _301  and  _303
REMARK  134  A    between atoms: _303  and  _304
REMARK  135  A    between atoms: _303  and  _306
REMARK  136  A    between atoms: _306  and  _307
REMARK  137  A    between atoms: _310  and  _312
REMARK  138  A    between atoms: _312  and  _313
REMARK  139  A    between atoms: _315  and  _317
REMARK  140  A    between atoms: _317  and  _318
REMARK  141  A    between atoms: _317  and  _320
REMARK  142  A    between atoms: _320  and  _321
REMARK  143  A    between atoms: _321  and  _322
REMARK  144  A    between atoms: _322  and  _323
REMARK  145  A    between atoms: _332  and  _334
REMARK  146  A    between atoms: _334  and  _335
REMARK  147  A    between atoms: _334  and  _337
REMARK  148  A    between atoms: _337  and  _338
REMARK  149  A    between atoms: _343  and  _344
REMARK  150  A    between atoms: _346  and  _348
REMARK  151  A    between atoms: _348  and  _349
REMARK  152  A    between atoms: _348  and  _351
REMARK  153  A    between atoms: _351  and  _352
REMARK  154  A    between atoms: _358  and  _360
REMARK  155  A    between atoms: _360  and  _361
REMARK  156  A    between atoms: _364  and  _366
REMARK  157  A    between atoms: _366  and  _367
REMARK  158  A    between atoms: _366  and  _369
REMARK  159  A    between atoms: _369  and  _370
REMARK  160  A    between atoms: _375  and  _376
REMARK  161  A    between atoms: _378  and  _380
REMARK  162  A    between atoms: _380  and  _381
REMARK  163  A    between atoms: _380  and  _383
REMARK  164  A    between atoms: _383  and  _384
REMARK  165  A    between atoms: _394  and  _396
REMARK  166  A    between atoms: _396  and  _397
REMARK  167  A    between atoms: _399  and  _401
REMARK  168  A    between atoms: _401  and  _402
REMARK  169  A    between atoms: _401  and  _404
REMARK  170  A    between atoms: _404  and  _405
REMARK  171  A    between atoms: _405  and  _406
REMARK  172  A    between atoms: _409  and  _411
REMARK  173  A    between atoms: _411  and  _412
REMARK  174  A    between atoms: _414  and  _416
REMARK  175  A    between atoms: _416  and  _417
REMARK  176  A    between atoms: _416  and  _419
REMARK  177  A    between atoms: _419  and  _420
REMARK  178  A    between atoms: _422  and  _424
REMARK  179  A    between atoms: _424  and  _425
REMARK  180  A    between atoms: _424  and  _427
REMARK  181  A    between atoms: _427  and  _428
REMARK  182  A    between atoms: _430  and  _432
REMARK  183  A    between atoms: _432  and  _433
REMARK  184  A    between atoms: _436  and  _438
REMARK  185  A    between atoms: _438  and  _439
REMARK  186  A    between atoms: _438  and  _441
REMARK  187  A    between atoms: _441  and  _442
REMARK  188  A    between atoms: _442  and  _443
REMARK  189  A    between atoms: _443  and  _444
REMARK  190  A    between atoms: _453  and  _455
REMARK  191  A    between atoms: _455  and  _456
REMARK  192  A    between atoms: _455  and  _458
REMARK  193  A    between atoms: _458  and  _459
REMARK  194  A    between atoms: _464  and  _466
REMARK  195  A    between atoms: _466  and  _467
REMARK  196  A    between atoms: _466  and  _469
REMARK  197  A    between atoms: _469  and  _470
REMARK  198  A    between atoms: _470  and  _471
REMARK  199  A    between atoms: _471  and  _472
REMARK  200  A    between atoms: _481  and  _483
REMARK  201  A    between atoms: _483  and  _484
REMARK  202  A    between atoms: _483  and  _486
REMARK  203  A    between atoms: _486  and  _487
REMARK  204  A    between atoms: _492  and  _493
REMARK  205  A    between atoms: _495  and  _497
REMARK  206  A    between atoms: _497  and  _498
REMARK  207  A    between atoms: _497  and  _500
REMARK  208  A    between atoms: _500  and  _501
REMARK  209  A    between atoms: _504  and  _506
REMARK  210  A    between atoms: _506  and  _507
REMARK  211  A    between atoms: _506  and  _509
REMARK  212  A    between atoms: _509  and  _510
REMARK  213  A    between atoms: _510  and  _511
REMARK  214  A    between atoms: _514  and  _516
REMARK  215  A    between atoms: _516  and  _517
REMARK  216  A    between atoms: _516  and  _519
REMARK  217  A    between atoms: _519  and  _520
REMARK  218  A    between atoms: _520  and  _521
REMARK  219  A    between atoms: _524  and  _526
REMARK  220  A    between atoms: _526  and  _527
REMARK  221  A    between atoms: _529  and  _531
REMARK  222  A    between atoms: _531  and  _532
REMARK  223  A    between atoms: _531  and  _534
REMARK  224  A    between atoms: _537  and  _539
REMARK  225  A    between atoms: _539  and  _540
REMARK  226  A    between atoms: _539  and  _542
REMARK  227  A    between atoms: _542  and  _543
REMARK  228  A    between atoms: _546  and  _548
REMARK  229  A    between atoms: _548  and  _549
REMARK  230  A    between atoms: _548  and  _551
REMARK  231  A    between atoms: _554  and  _556
REMARK  232  A    between atoms: _556  and  _557
REMARK  233  A    between atoms: _556  and  _559
REMARK  234  A    between atoms: _559  and  _560
REMARK  235  A    between atoms: _560  and  _561
REMARK  236  A    between atoms: _564  and  _566
REMARK  237  A    between atoms: _566  and  _567
REMARK  238  A    between atoms: _566  and  _569
REMARK  239  A    between atoms: _569  and  _570
REMARK  240  A    between atoms: _575  and  _577
REMARK  241  A    between atoms: _577  and  _578
REMARK  242  A    between atoms: _577  and  _580
REMARK  243  A    between atoms: _580  and  _581
REMARK  244  A    between atoms: _584  and  _586
REMARK  245  A    between atoms: _586  and  _587
REMARK  246  A    between atoms: _586  and  _589
REMARK                            x       y       z     vdW  Elec       q    Type
REMARK                         _______ _______ _______ _____ _____    ______ ____
ROOT
ATOM      1  O   HOH     1     -19.773  37.731  38.193  0.00  0.00    +0.000 OA
ENDROOT
TORSDOF 0
REMARK  Name = ../refined-set-2016/1pvn/1pvn_pocket.pdb
REMARK  246 active torsions:
REMARK  status: ('A' for Active; 'I' for Inactive)
REMARK    1  A    between atoms: _1  and  _3
REMARK    2  A    between atoms: _3  and  _4
REMARK    3  A    between atoms: _3  and  _6
REMARK    4  A    between atoms: _9  and  _11
REMARK    5  A    between atoms: _11  and  _12
REMARK    6  A    between atoms: _11  and  _14
REMARK    7  A    between atoms: _14  and  _15
REMARK    8  A    between atoms: _17  and  _19
REMARK    9  A    between atoms: _19  and  _20
REMARK   10  A    between atoms: _23  and  _25
REMARK   11  A    between atoms: _25  and  _26
REMARK   12  A    between atoms: _25  and  _28
REMARK   13  A    between atoms: _28  and  _29
REMARK   14  A    between atoms: _32  and  _34
REMARK   15  A    between atoms: _34  and  _35
REMARK   16  A    between atoms: _34  and  _37
REMARK   17  A    between atoms: _37  and  _38
REMARK   18  A    between atoms: _38  and  _39
REMARK   19  A    between atoms: _41  and  _43
REMARK   20  A    between atoms: _43  and  _44
REMARK   21  A    between atoms: _43  and  _46
REMARK   22  A    between atoms: _46  and  _47
REMARK   23  A    between atoms: _47  and  _48
REMARK   24  A    between atoms: _53  and  _55
REMARK   25  A    between atoms: _55  and  _56
REMARK   26  A    between atoms: _55  and  _58
REMARK   27  A    between atoms: _58  and  _59
REMARK   28  A    between atoms: _61  and  _63
REMARK   29  A    between atoms: _63  and  _64
REMARK   30  A    between atoms: _63  and  _66
REMARK   31  A    between atoms: _69  and  _71
REMARK   32  A    between atoms: _71  and  _72
REMARK   33  A    between atoms: _71  and  _74
REMARK   34  A    between atoms: _74  and  _75
REMARK   35  A    between atoms: _78  and  _80
REMARK   36  A    between atoms: _80  and  _81
REMARK   37  A    between atoms: _80  and  _83
REMARK   38  A    between atoms: _83  and  _84
REMARK   39  A    between atoms: _86  and  _88
REMARK   40  A    between atoms: _88  and  _89
REMARK   41  A    between atoms: _88  and  _91
REMARK   42  A    between atoms: _91  and  _92
REMARK   43  A    between atoms: _94  and  _96
REMARK   44  A    between atoms: _96  and  _97
REMARK   45  A    between atoms: _99  and  _101
REMARK   46  A    between atoms: _101  and  _102
REMARK   47  A    between atoms: _101  and  _104
REMARK   48  A    between atoms: _104  and  _105
REMARK   49  A    between atoms: _110  and  _112
REMARK   50  A    between atoms: _112  and  _113
REMARK   51  A    between atoms: _112  and  _115
REMARK   52  A    between atoms: _115  and  _116
REMARK   53  A    between atoms: _116  and  _117
REMARK   54  A    between atoms: _117  and  _118
REMARK   55  A    between atoms: _118  and  _119
REMARK   56  A    between atoms: _123  and  _125
REMARK   57  A    between atoms: _125  and  _126
REMARK   58  A    between atoms: _125  and  _128
REMARK   59  A    between atoms: _128  and  _129
REMARK   60  A    between atoms: _132  and  _134
REMARK   61  A    between atoms: _134  and  _135
REMARK   62  A    between atoms: _137  and  _139
REMARK   63  A    between atoms: _139  and  _140
REMARK   64  A    between atoms: _139  and  _142
REMARK   65  A    between atoms: _142  and  _143
REMARK   66  A    between atoms: _146  and  _148
REMARK   67  A    between atoms: _148  and  _149
REMARK   68  A    between atoms: _151  and  _153
REMARK   69  A    between atoms: _153  and  _154
REMARK   70  A    between atoms: _156  and  _158
REMARK   71  A    between atoms: _158  and  _159
REMARK   72  A    between atoms: _161  and  _163
REMARK   73  A    between atoms: _163  and  _164
REMARK   74  A    between atoms: _163  and  _166
REMARK   75  A    between atoms: _166  and  _167
REMARK   76  A    between atoms: _169  and  _171
REMARK   77  A    between atoms: _171  and  _172
REMARK   78  A    between atoms: _171  and  _174
REMARK   79  A    between atoms: _174  and  _175
REMARK   80  A    between atoms: _178  and  _180
REMARK   81  A    between atoms: _180  and  _181
REMARK   82  A    between atoms: _180  and  _183
REMARK   83  A    between atoms: _185  and  _187
REMARK   84  A    between atoms: _187  and  _188
REMARK   85  A    between atoms: _187  and  _190
REMARK   86  A    between atoms: _190  and  _191
REMARK   87  A    between atoms: _194  and  _196
REMARK   88  A    between atoms: _196  and  _197
REMARK   89  A    between atoms: _196  and  _199
REMARK   90  A    between atoms: _199  and  _200
REMARK   91  A    between atoms: _203  and  _205
REMARK   92  A    between atoms: _205  and  _206
REMARK   93  A    between atoms: _205  and  _208
REMARK   94  A    between atoms: _208  and  _209
REMARK   95  A    between atoms: _209  and  _210
REMARK   96  A    between atoms: _210  and  _211
REMARK   97  A    between atoms: _220  and  _222
REMARK   98  A    between atoms: _222  and  _223
REMARK   99  A    between atoms: _222  and  _225
REMARK  100  A    between atoms: _225  and  _226
REMARK  101  A    between atoms: _226  and  _227
REMARK  102  A    between atoms: _232  and  _234
REMARK  103  A    between atoms: _234  and  _235
REMARK  104  A    between atoms: _234  and  _237
REMARK  105  A    between atoms: _239  and  _241
REMARK  106  A    between atoms: _241  and  _242
REMARK  107  A    between atoms: _241  and  _244
REMARK  108  A    between atoms: _244  and  _245
REMARK  109  A    between atoms: _247  and  _249
REMARK  110  A    between atoms: _249  and  _250
REMARK  111  A    between atoms: _249  and  _252
REMARK  112  A    between atoms: _252  and  _253
REMARK  113  A    between atoms: _256  and  _258
REMARK  114  A    between atoms: _258  and  _259
REMARK  115  A    between atoms: _261  and  _263
REMARK  116  A    between atoms: _263  and  _264
REMARK  117  A    between atoms: _266  and  _268
REMARK  118  A    between atoms: _268  and  _269
REMARK  119  A    between atoms: _268  and  _271
REMARK  120  A    between atoms: _271  and  _272
REMARK  121  A    between atoms: _275  and  _277
REMARK  122  A    between atoms: _277  and  _278
REMARK  123  A    between atoms: _277  and  _280
REMARK  124  A    between atoms: _283  and  _285
REMARK  125  A    between atoms: _285  and  _286
REMARK  126  A    between atoms: _285  and  _288
REMARK  127  A    between atoms: _288  and  _289
REMARK  128  A    between atoms: _292  and  _294
REMARK  129  A    between atoms: _294  and  _295
REMARK  130  A    between atoms: _294  and  _297
REMARK  131  A    between atoms: _297  and  _298
REMARK  132  A    between atoms: _298  and  _299
REMARK  133  A    between atoms: _301  and  _303
REMARK  134  A    between atoms: _303  and  _304
REMARK  135  A    between atoms: _303  and  _306
REMARK  136  A    between atoms: _306  and  _307
REMARK  137  A    between atoms: _310  and  _312
REMARK  138  A    between atoms: _312  and  _313
REMARK  139  A    between atoms: _315  and  _317
REMARK  140  A    between atoms: _317  and  _318
REMARK  141  A    between atoms: _317  and  _320
REMARK  142  A    between atoms: _320  and  _321
REMARK  143  A    between atoms: _321  and  _322
REMARK  144  A    between atoms: _322  and  _323
REMARK  145  A    between atoms: _332  and  _334
REMARK  146  A    between atoms: _334  and  _335
REMARK  147  A    between atoms: _334  and  _337
REMARK  148  A    between atoms: _337  and  _338
REMARK  149  A    between atoms: _343  and  _344
REMARK  150  A    between atoms: _346  and  _348
REMARK  151  A    between atoms: _348  and  _349
REMARK  152  A    between atoms: _348  and  _351
REMARK  153  A    between atoms: _351  and  _352
REMARK  154  A    between atoms: _358  and  _360
REMARK  155  A    between atoms: _360  and  _361
REMARK  156  A    between atoms: _364  and  _366
REMARK  157  A    between atoms: _366  and  _367
REMARK  158  A    between atoms: _366  and  _369
REMARK  159  A    between atoms: _369  and  _370
REMARK  160  A    between atoms: _375  and  _376
REMARK  161  A    between atoms: _378  and  _380
REMARK  162  A    between atoms: _380  and  _381
REMARK  163  A    between atoms: _380  and  _383
REMARK  164  A    between atoms: _383  and  _384
REMARK  165  A    between atoms: _394  and  _396
REMARK  166  A    between atoms: _396  and  _397
REMARK  167  A    between atoms: _399  and  _401
REMARK  168  A    between atoms: _401  and  _402
REMARK  169  A    between atoms: _401  and  _404
REMARK  170  A    between atoms: _404  and  _405
REMARK  171  A    between atoms: _405  and  _406
REMARK  172  A    between atoms: _409  and  _411
REMARK  173  A    between atoms: _411  and  _412
REMARK  174  A    between atoms: _414  and  _416
REMARK  175  A    between atoms: _416  and  _417
REMARK  176  A    between atoms: _416  and  _419
REMARK  177  A    between atoms: _419  and  _420
REMARK  178  A    between atoms: _422  and  _424
REMARK  179  A    between atoms: _424  and  _425
REMARK  180  A    between atoms: _424  and  _427
REMARK  181  A    between atoms: _427  and  _428
REMARK  182  A    between atoms: _430  and  _432
REMARK  183  A    between atoms: _432  and  _433
REMARK  184  A    between atoms: _436  and  _438
REMARK  185  A    between atoms: _438  and  _439
REMARK  186  A    between atoms: _438  and  _441
REMARK  187  A    between atoms: _441  and  _442
REMARK  188  A    between atoms: _442  and  _443
REMARK  189  A    between atoms: _443  and  _444
REMARK  190  A    between atoms: _453  and  _455
REMARK  191  A    between atoms: _455  and  _456
REMARK  192  A    between atoms: _455  and  _458
REMARK  193  A    between atoms: _458  and  _459
REMARK  194  A    between atoms: _464  and  _466
REMARK  195  A    between atoms: _466  and  _467
REMARK  196  A    between atoms: _466  and  _469
REMARK  197  A    between atoms: _469  and  _470
REMARK  198  A    between atoms: _470  and  _471
REMARK  199  A    between atoms: _471  and  _472
REMARK  200  A    between atoms: _481  and  _483
REMARK  201  A    between atoms: _483  and  _484
REMARK  202  A    between atoms: _483  and  _486
REMARK  203  A    between atoms: _486  and  _487
REMARK  204  A    between atoms: _492  and  _493
REMARK  205  A    between atoms: _495  and  _497
REMARK  206  A    between atoms: _497  and  _498
REMARK  207  A    between atoms: _497  and  _500
REMARK  208  A    between atoms: _500  and  _501
REMARK  209  A    between atoms: _504  and  _506
REMARK  210  A    between atoms: _506  and  _507
REMARK  211  A    between atoms: _506  and  _509
REMARK  212  A    between atoms: _509  and  _510
REMARK  213  A    between atoms: _510  and  _511
REMARK  214  A    between atoms: _514  and  _516
REMARK  215  A    between atoms: _516  and  _517
REMARK  216  A    between atoms: _516  and  _519
REMARK  217  A    between atoms: _519  and  _520
REMARK  218  A    between atoms: _520  and  _521
REMARK  219  A    between atoms: _524  and  _526
REMARK  220  A    between atoms: _526  and  _527
REMARK  221  A    between atoms: _529  and  _531
REMARK  222  A    between atoms: _531  and  _532
REMARK  223  A    between atoms: _531  and  _534
REMARK  224  A    between atoms: _537  and  _539
REMARK  225  A    between atoms: _539  and  _540
REMARK  226  A    between atoms: _539  and  _542
REMARK  227  A    between atoms: _542  and  _543
REMARK  228  A    between atoms: _546  and  _548
REMARK  229  A    between atoms: _548  and  _549
REMARK  230  A    between atoms: _548  and  _551
REMARK  231  A    between atoms: _554  and  _556
REMARK  232  A    between atoms: _556  and  _557
REMARK  233  A    between atoms: _556  and  _559
REMARK  234  A    between atoms: _559  and  _560
REMARK  235  A    between atoms: _560  and  _561
REMARK  236  A    between atoms: _564  and  _566
REMARK  237  A    between atoms: _566  and  _567
REMARK  238  A    between atoms: _566  and  _569
REMARK  239  A    between atoms: _569  and  _570
REMARK  240  A    between atoms: _575  and  _577
REMARK  241  A    between atoms: _577  and  _578
REMARK  242  A    between atoms: _577  and  _580
REMARK  243  A    between atoms: _580  and  _581
REMARK  244  A    between atoms: _584  and  _586
REMARK  245  A    between atoms: _586  and  _587
REMARK  246  A    between atoms: _586  and  _589
REMARK                            x       y       z     vdW  Elec       q    Type
REMARK                         _______ _______ _______ _____ _____    ______ ____
ROOT
ATOM      1  O   HOH     1     -13.739  38.249  46.942  0.00  0.00    +0.000 OA
ENDROOT
TORSDOF 0
