REMARK  Name = ../refined-set-2016/3rt4/3rt4_pocket.pdb
REMARK  310 active torsions:
REMARK  status: ('A' for Active; 'I' for Inactive)
REMARK    1  A    between atoms: _1  and  _3
REMARK    2  A    between atoms: _3  and  _4
REMARK    3  A    between atoms: _3  and  _6
REMARK    4  A    between atoms: _6  and  _7
REMARK    5  A    between atoms: _7  and  _8
REMARK    6  A    between atoms: _8  and  _9
REMARK    7  A    between atoms: _18  and  _20
REMARK    8  A    between atoms: _20  and  _21
REMARK    9  A    between atoms: _20  and  _23
REMARK   10  A    between atoms: _26  and  _28
REMARK   11  A    between atoms: _28  and  _29
REMARK   12  A    between atoms: _28  and  _31
REMARK   13  A    between atoms: _31  and  _32
REMARK   14  A    between atoms: _32  and  _33
REMARK   15  A    between atoms: _33  and  _34
REMARK   16  A    between atoms: _43  and  _45
REMARK   17  A    between atoms: _45  and  _46
REMARK   18  A    between atoms: _45  and  _48
REMARK   19  A    between atoms: _48  and  _49
REMARK   20  A    between atoms: _51  and  _53
REMARK   21  A    between atoms: _53  and  _54
REMARK   22  A    between atoms: _53  and  _56
REMARK   23  A    between atoms: _56  and  _57
REMARK   24  A    between atoms: _62  and  _64
REMARK   25  A    between atoms: _64  and  _65
REMARK   26  A    between atoms: _64  and  _67
REMARK   27  A    between atoms: _67  and  _68
REMARK   28  A    between atoms: _73  and  _74
REMARK   29  A    between atoms: _76  and  _78
REMARK   30  A    between atoms: _78  and  _79
REMARK   31  A    between atoms: _78  and  _81
REMARK   32  A    between atoms: _81  and  _82
REMARK   33  A    between atoms: _82  and  _83
REMARK   34  A    between atoms: _86  and  _88
REMARK   35  A    between atoms: _88  and  _89
REMARK   36  A    between atoms: _88  and  _91
REMARK   37  A    between atoms: _91  and  _92
REMARK   38  A    between atoms: _92  and  _93
REMARK   39  A    between atoms: _93  and  _94
REMARK   40  A    between atoms: _94  and  _95
REMARK   41  A    between atoms: _99  and  _101
REMARK   42  A    between atoms: _101  and  _102
REMARK   43  A    between atoms: _101  and  _104
REMARK   44  A    between atoms: _104  and  _105
REMARK   45  A    between atoms: _110  and  _111
REMARK   46  A    between atoms: _113  and  _115
REMARK   47  A    between atoms: _115  and  _116
REMARK   48  A    between atoms: _115  and  _118
REMARK   49  A    between atoms: _118  and  _119
REMARK   50  A    between atoms: _119  and  _120
REMARK   51  A    between atoms: _120  and  _121
REMARK   52  A    between atoms: _130  and  _132
REMARK   53  A    between atoms: _132  and  _133
REMARK   54  A    between atoms: _136  and  _138
REMARK   55  A    between atoms: _138  and  _139
REMARK   56  A    between atoms: _138  and  _141
REMARK   57  A    between atoms: _141  and  _142
REMARK   58  A    between atoms: _142  and  _258
REMARK   59  A    between atoms: _143  and  _145
REMARK   60  A    between atoms: _145  and  _146
REMARK   61  A    between atoms: _145  and  _148
REMARK   62  A    between atoms: _148  and  _149
REMARK   63  A    between atoms: _149  and  _150
REMARK   64  A    between atoms: _153  and  _155
REMARK   65  A    between atoms: _155  and  _156
REMARK   66  A    between atoms: _155  and  _158
REMARK   67  A    between atoms: _158  and  _159
REMARK   68  A    between atoms: _161  and  _163
REMARK   69  A    between atoms: _163  and  _164
REMARK   70  A    between atoms: _163  and  _166
REMARK   71  A    between atoms: _166  and  _167
REMARK   72  A    between atoms: _172  and  _173
REMARK   73  A    between atoms: _175  and  _177
REMARK   74  A    between atoms: _177  and  _178
REMARK   75  A    between atoms: _177  and  _180
REMARK   76  A    between atoms: _180  and  _181
REMARK   77  A    between atoms: _186  and  _188
REMARK   78  A    between atoms: _188  and  _189
REMARK   79  A    between atoms: _188  and  _191
REMARK   80  A    between atoms: _194  and  _196
REMARK   81  A    between atoms: _196  and  _197
REMARK   82  A    between atoms: _196  and  _199
REMARK   83  A    between atoms: _199  and  _200
REMARK   84  A    between atoms: _200  and  _201
REMARK   85  A    between atoms: _201  and  _202
REMARK   86  A    between atoms: _211  and  _213
REMARK   87  A    between atoms: _213  and  _214
REMARK   88  A    between atoms: _213  and  _216
REMARK   89  A    between atoms: _216  and  _217
REMARK   90  A    between atoms: _222  and  _224
REMARK   91  A    between atoms: _224  and  _225
REMARK   92  A    between atoms: _224  and  _227
REMARK   93  A    between atoms: _227  and  _228
REMARK   94  A    between atoms: _231  and  _233
REMARK   95  A    between atoms: _233  and  _234
REMARK   96  A    between atoms: _236  and  _238
REMARK   97  A    between atoms: _238  and  _239
REMARK   98  A    between atoms: _238  and  _241
REMARK   99  A    between atoms: _241  and  _242
REMARK  100  A    between atoms: _252  and  _254
REMARK  101  A    between atoms: _254  and  _255
REMARK  102  A    between atoms: _254  and  _257
REMARK  103  A    between atoms: _257  and  _258
REMARK  104  A    between atoms: _259  and  _261
REMARK  105  A    between atoms: _261  and  _262
REMARK  106  A    between atoms: _261  and  _264
REMARK  107  A    between atoms: _264  and  _265
REMARK  108  A    between atoms: _268  and  _270
REMARK  109  A    between atoms: _270  and  _271
REMARK  110  A    between atoms: _273  and  _275
REMARK  111  A    between atoms: _275  and  _276
REMARK  112  A    between atoms: _275  and  _278
REMARK  113  A    between atoms: _278  and  _279
REMARK  114  A    between atoms: _284  and  _285
REMARK  115  A    between atoms: _287  and  _289
REMARK  116  A    between atoms: _289  and  _290
REMARK  117  A    between atoms: _289  and  _292
REMARK  118  A    between atoms: _292  and  _293
REMARK  119  A    between atoms: _293  and  _294
REMARK  120  A    between atoms: _294  and  _295
REMARK  121  A    between atoms: _304  and  _306
REMARK  122  A    between atoms: _306  and  _307
REMARK  123  A    between atoms: _306  and  _309
REMARK  124  A    between atoms: _309  and  _310
REMARK  125  A    between atoms: _310  and  _311
REMARK  126  A    between atoms: _311  and  _312
REMARK  127  A    between atoms: _312  and  _313
REMARK  128  A    between atoms: _317  and  _319
REMARK  129  A    between atoms: _319  and  _320
REMARK  130  A    between atoms: _322  and  _324
REMARK  131  A    between atoms: _324  and  _325
REMARK  132  A    between atoms: _328  and  _330
REMARK  133  A    between atoms: _330  and  _331
REMARK  134  A    between atoms: _330  and  _333
REMARK  135  A    between atoms: _333  and  _334
REMARK  136  A    between atoms: _339  and  _341
REMARK  137  A    between atoms: _341  and  _342
REMARK  138  A    between atoms: _345  and  _347
REMARK  139  A    between atoms: _347  and  _348
REMARK  140  A    between atoms: _351  and  _352
REMARK  141  A    between atoms: _357  and  _359
REMARK  142  A    between atoms: _359  and  _360
REMARK  143  A    between atoms: _359  and  _362
REMARK  144  A    between atoms: _362  and  _363
REMARK  145  A    between atoms: _366  and  _368
REMARK  146  A    between atoms: _368  and  _369
REMARK  147  A    between atoms: _368  and  _371
REMARK  148  A    between atoms: _371  and  _372
REMARK  149  A    between atoms: _382  and  _384
REMARK  150  A    between atoms: _384  and  _385
REMARK  151  A    between atoms: _384  and  _387
REMARK  152  A    between atoms: _387  and  _388
REMARK  153  A    between atoms: _394  and  _395
REMARK  154  A    between atoms: _400  and  _402
REMARK  155  A    between atoms: _402  and  _403
REMARK  156  A    between atoms: _402  and  _405
REMARK  157  A    between atoms: _405  and  _406
REMARK  158  A    between atoms: _409  and  _411
REMARK  159  A    between atoms: _411  and  _412
REMARK  160  A    between atoms: _411  and  _414
REMARK  161  A    between atoms: _414  and  _415
REMARK  162  A    between atoms: _417  and  _419
REMARK  163  A    between atoms: _419  and  _420
REMARK  164  A    between atoms: _419  and  _422
REMARK  165  A    between atoms: _422  and  _423
REMARK  166  A    between atoms: _428  and  _430
REMARK  167  A    between atoms: _430  and  _431
REMARK  168  A    between atoms: _430  and  _433
REMARK  169  A    between atoms: _436  and  _438
REMARK  170  A    between atoms: _438  and  _439
REMARK  171  A    between atoms: _438  and  _441
REMARK  172  A    between atoms: _441  and  _442
REMARK  173  A    between atoms: _442  and  _443
REMARK  174  A    between atoms: _449  and  _450
REMARK  175  A    between atoms: _455  and  _457
REMARK  176  A    between atoms: _457  and  _458
REMARK  177  A    between atoms: _457  and  _460
REMARK  178  A    between atoms: _460  and  _461
REMARK  179  A    between atoms: _464  and  _466
REMARK  180  A    between atoms: _466  and  _467
REMARK  181  A    between atoms: _466  and  _469
REMARK  182  A    between atoms: _469  and  _470
REMARK  183  A    between atoms: _473  and  _475
REMARK  184  A    between atoms: _475  and  _476
REMARK  185  A    between atoms: _475  and  _478
REMARK  186  A    between atoms: _478  and  _479
REMARK  187  A    between atoms: _481  and  _483
REMARK  188  A    between atoms: _483  and  _484
REMARK  189  A    between atoms: _483  and  _486
REMARK  190  A    between atoms: _486  and  _487
REMARK  191  A    between atoms: _492  and  _493
REMARK  192  A    between atoms: _495  and  _497
REMARK  193  A    between atoms: _497  and  _498
REMARK  194  A    between atoms: _497  and  _500
REMARK  195  A    between atoms: _500  and  _501
REMARK  196  A    between atoms: _506  and  _508
REMARK  197  A    between atoms: _508  and  _509
REMARK  198  A    between atoms: _508  and  _511
REMARK  199  A    between atoms: _511  and  _512
REMARK  200  A    between atoms: _515  and  _517
REMARK  201  A    between atoms: _517  and  _518
REMARK  202  A    between atoms: _517  and  _520
REMARK  203  A    between atoms: _520  and  _521
REMARK  204  A    between atoms: _531  and  _533
REMARK  205  A    between atoms: _533  and  _534
REMARK  206  A    between atoms: _536  and  _538
REMARK  207  A    between atoms: _538  and  _539
REMARK  208  A    between atoms: _538  and  _541
REMARK  209  A    between atoms: _541  and  _542
REMARK  210  A    between atoms: _547  and  _548
REMARK  211  A    between atoms: _550  and  _552
REMARK  212  A    between atoms: _552  and  _553
REMARK  213  A    between atoms: _552  and  _555
REMARK  214  A    between atoms: _555  and  _556
REMARK  215  A    between atoms: _556  and  _557
REMARK  216  A    between atoms: _557  and  _558
REMARK  217  A    between atoms: _567  and  _569
REMARK  218  A    between atoms: _569  and  _570
REMARK  219  A    between atoms: _569  and  _572
REMARK  220  A    between atoms: _572  and  _573
REMARK  221  A    between atoms: _573  and  _574
REMARK  222  A    between atoms: _574  and  _575
REMARK  223  A    between atoms: _575  and  _576
REMARK  224  A    between atoms: _580  and  _582
REMARK  225  A    between atoms: _582  and  _583
REMARK  226  A    between atoms: _585  and  _587
REMARK  227  A    between atoms: _587  and  _588
REMARK  228  A    between atoms: _591  and  _593
REMARK  229  A    between atoms: _593  and  _594
REMARK  230  A    between atoms: _593  and  _596
REMARK  231  A    between atoms: _596  and  _597
REMARK  232  A    between atoms: _602  and  _604
REMARK  233  A    between atoms: _604  and  _605
REMARK  234  A    between atoms: _608  and  _610
REMARK  235  A    between atoms: _610  and  _611
REMARK  236  A    between atoms: _614  and  _615
REMARK  237  A    between atoms: _620  and  _622
REMARK  238  A    between atoms: _622  and  _623
REMARK  239  A    between atoms: _622  and  _625
REMARK  240  A    between atoms: _625  and  _626
REMARK  241  A    between atoms: _629  and  _631
REMARK  242  A    between atoms: _631  and  _632
REMARK  243  A    between atoms: _631  and  _634
REMARK  244  A    between atoms: _634  and  _635
REMARK  245  A    between atoms: _645  and  _647
REMARK  246  A    between atoms: _647  and  _648
REMARK  247  A    between atoms: _647  and  _650
REMARK  248  A    between atoms: _650  and  _651
REMARK  249  A    between atoms: _657  and  _658
REMARK  250  A    between atoms: _663  and  _665
REMARK  251  A    between atoms: _665  and  _666
REMARK  252  A    between atoms: _665  and  _668
REMARK  253  A    between atoms: _668  and  _669
REMARK  254  A    between atoms: _672  and  _674
REMARK  255  A    between atoms: _674  and  _675
REMARK  256  A    between atoms: _674  and  _677
REMARK  257  A    between atoms: _677  and  _678
REMARK  258  A    between atoms: _678  and  _679
REMARK  259  A    between atoms: _682  and  _684
REMARK  260  A    between atoms: _684  and  _685
REMARK  261  A    between atoms: _684  and  _687
REMARK  262  A    between atoms: _687  and  _688
REMARK  263  A    between atoms: _688  and  _689
REMARK  264  A    between atoms: _689  and  _690
REMARK  265  A    between atoms: _690  and  _691
REMARK  266  A    between atoms: _695  and  _697
REMARK  267  A    between atoms: _697  and  _698
REMARK  268  A    between atoms: _700  and  _702
REMARK  269  A    between atoms: _702  and  _703
REMARK  270  A    between atoms: _702  and  _705
REMARK  271  A    between atoms: _705  and  _706
REMARK  272  A    between atoms: _711  and  _713
REMARK  273  A    between atoms: _713  and  _714
REMARK  274  A    between atoms: _713  and  _716
REMARK  275  A    between atoms: _716  and  _717
REMARK  276  A    between atoms: _717  and  _718
REMARK  277  A    between atoms: _718  and  _719
REMARK  278  A    between atoms: _728  and  _730
REMARK  279  A    between atoms: _730  and  _731
REMARK  280  A    between atoms: _730  and  _733
REMARK  281  A    between atoms: _733  and  _734
REMARK  282  A    between atoms: _737  and  _739
REMARK  283  A    between atoms: _739  and  _740
REMARK  284  A    between atoms: _739  and  _742
REMARK  285  A    between atoms: _745  and  _747
REMARK  286  A    between atoms: _747  and  _748
REMARK  287  A    between atoms: _747  and  _750
REMARK  288  A    between atoms: _750  and  _751
REMARK  289  A    between atoms: _751  and  _752
REMARK  290  A    between atoms: _758  and  _759
REMARK  291  A    between atoms: _764  and  _766
REMARK  292  A    between atoms: _766  and  _767
REMARK  293  A    between atoms: _766  and  _769
REMARK  294  A    between atoms: _769  and  _770
REMARK  295  A    between atoms: _773  and  _775
REMARK  296  A    between atoms: _775  and  _776
REMARK  297  A    between atoms: _775  and  _778
REMARK  298  A    between atoms: _778  and  _779
REMARK  299  A    between atoms: _782  and  _784
REMARK  300  A    between atoms: _784  and  _785
REMARK  301  A    between atoms: _784  and  _787
REMARK  302  A    between atoms: _787  and  _788
REMARK  303  A    between atoms: _790  and  _792
REMARK  304  A    between atoms: _792  and  _793
REMARK  305  A    between atoms: _792  and  _795
REMARK  306  A    between atoms: _795  and  _796
REMARK  307  A    between atoms: _796  and  _797
REMARK  308  A    between atoms: _797  and  _798
REMARK  309  A    between atoms: _807  and  _809
REMARK  310  A    between atoms: _809  and  _810
REMARK                            x       y       z     vdW  Elec       q    Type
REMARK                         _______ _______ _______ _____ _____    ______ ____
ROOT
ATOM      1  NE  ARG A   1     -28.680 -37.999 -28.254  0.00  0.00    -0.265 N 
ATOM      2  CZ  ARG A   1     -29.594 -37.225 -27.684  0.00  0.00    +0.342 C 
ATOM      3  NH2 ARG A   1     -30.768 -37.735 -27.332  0.00  0.00    -0.292 N 
ATOM      4 HH21 ARG A   1     -31.485 -37.129 -26.885  0.00  0.00    +0.255 HD
ATOM      5 HH22 ARG A   1     -30.970 -38.741 -27.503  0.00  0.00    +0.255 HD
ATOM      6  NH1 ARG A   1     -29.352 -35.939 -27.474  0.00  0.00    -0.292 N 
ATOM      7 HH11 ARG A   1     -30.075 -35.340 -27.026  0.00  0.00    +0.255 HD
ATOM      8 HH12 ARG A   1     -28.439 -35.529 -27.757  0.00  0.00    +0.255 HD
ATOM      9  HE  ARG A   1     -28.915 -39.003 -28.392  0.00  0.00    +0.259 HD
ENDROOT
BRANCH   1  10
ATOM     10  CD  ARG A   1     -27.367 -37.541 -28.701  0.00  0.00    +0.174 C 
BRANCH  10  11
ATOM     11  CG  ARG A   1     -27.417 -36.859 -30.062  0.00  0.00    +0.045 C 
BRANCH  11  12
ATOM     12  CB  ARG A   1     -28.011 -37.805 -31.098  0.00  0.00    +0.029 C 
BRANCH  12  13
ATOM     13  CA  ARG A   1     -28.268 -37.200 -32.473  0.00  0.00    +0.133 C 
BRANCH  13  14
ATOM     14  N   ARG A   1     -28.807 -38.233 -33.333  0.00  0.00    -0.239 NA
ATOM     15  H   ARG A   1     -28.541 -39.223 -33.157  0.00  0.00    +0.142 HD
ENDBRANCH  13  14
BRANCH  13  16
ATOM     16  C   ARG A   1     -26.993 -36.531 -32.914  0.00  0.00    +0.224 C 
ATOM     17  O   ARG A   1     -26.765 -35.351 -32.628  0.00  0.00    -0.287 OA
ENDBRANCH  13  16
ENDBRANCH  12  13
ENDBRANCH  11  12
ENDBRANCH  10  11
ENDBRANCH   1  10
TORSDOF 6
REMARK  Name = ../refined-set-2016/3rt4/3rt4_pocket.pdb
REMARK  310 active torsions:
REMARK  status: ('A' for Active; 'I' for Inactive)
REMARK    1  A    between atoms: _1  and  _3
REMARK    2  A    between atoms: _3  and  _4
REMARK    3  A    between atoms: _3  and  _6
REMARK    4  A    between atoms: _6  and  _7
REMARK    5  A    between atoms: _7  and  _8
REMARK    6  A    between atoms: _8  and  _9
REMARK    7  A    between atoms: _18  and  _20
REMARK    8  A    between atoms: _20  and  _21
REMARK    9  A    between atoms: _20  and  _23
REMARK   10  A    between atoms: _26  and  _28
REMARK   11  A    between atoms: _28  and  _29
REMARK   12  A    between atoms: _28  and  _31
REMARK   13  A    between atoms: _31  and  _32
REMARK   14  A    between atoms: _32  and  _33
REMARK   15  A    between atoms: _33  and  _34
REMARK   16  A    between atoms: _43  and  _45
REMARK   17  A    between atoms: _45  and  _46
REMARK   18  A    between atoms: _45  and  _48
REMARK   19  A    between atoms: _48  and  _49
REMARK   20  A    between atoms: _51  and  _53
REMARK   21  A    between atoms: _53  and  _54
REMARK   22  A    between atoms: _53  and  _56
REMARK   23  A    between atoms: _56  and  _57
REMARK   24  A    between atoms: _62  and  _64
REMARK   25  A    between atoms: _64  and  _65
REMARK   26  A    between atoms: _64  and  _67
REMARK   27  A    between atoms: _67  and  _68
REMARK   28  A    between atoms: _73  and  _74
REMARK   29  A    between atoms: _76  and  _78
REMARK   30  A    between atoms: _78  and  _79
REMARK   31  A    between atoms: _78  and  _81
REMARK   32  A    between atoms: _81  and  _82
REMARK   33  A    between atoms: _82  and  _83
REMARK   34  A    between atoms: _86  and  _88
REMARK   35  A    between atoms: _88  and  _89
REMARK   36  A    between atoms: _88  and  _91
REMARK   37  A    between atoms: _91  and  _92
REMARK   38  A    between atoms: _92  and  _93
REMARK   39  A    between atoms: _93  and  _94
REMARK   40  A    between atoms: _94  and  _95
REMARK   41  A    between atoms: _99  and  _101
REMARK   42  A    between atoms: _101  and  _102
REMARK   43  A    between atoms: _101  and  _104
REMARK   44  A    between atoms: _104  and  _105
REMARK   45  A    between atoms: _110  and  _111
REMARK   46  A    between atoms: _113  and  _115
REMARK   47  A    between atoms: _115  and  _116
REMARK   48  A    between atoms: _115  and  _118
REMARK   49  A    between atoms: _118  and  _119
REMARK   50  A    between atoms: _119  and  _120
REMARK   51  A    between atoms: _120  and  _121
REMARK   52  A    between atoms: _130  and  _132
REMARK   53  A    between atoms: _132  and  _133
REMARK   54  A    between atoms: _136  and  _138
REMARK   55  A    between atoms: _138  and  _139
REMARK   56  A    between atoms: _138  and  _141
REMARK   57  A    between atoms: _141  and  _142
REMARK   58  A    between atoms: _142  and  _258
REMARK   59  A    between atoms: _143  and  _145
REMARK   60  A    between atoms: _145  and  _146
REMARK   61  A    between atoms: _145  and  _148
REMARK   62  A    between atoms: _148  and  _149
REMARK   63  A    between atoms: _149  and  _150
REMARK   64  A    between atoms: _153  and  _155
REMARK   65  A    between atoms: _155  and  _156
REMARK   66  A    between atoms: _155  and  _158
REMARK   67  A    between atoms: _158  and  _159
REMARK   68  A    between atoms: _161  and  _163
REMARK   69  A    between atoms: _163  and  _164
REMARK   70  A    between atoms: _163  and  _166
REMARK   71  A    between atoms: _166  and  _167
REMARK   72  A    between atoms: _172  and  _173
REMARK   73  A    between atoms: _175  and  _177
REMARK   74  A    between atoms: _177  and  _178
REMARK   75  A    between atoms: _177  and  _180
REMARK   76  A    between atoms: _180  and  _181
REMARK   77  A    between atoms: _186  and  _188
REMARK   78  A    between atoms: _188  and  _189
REMARK   79  A    between atoms: _188  and  _191
REMARK   80  A    between atoms: _194  and  _196
REMARK   81  A    between atoms: _196  and  _197
REMARK   82  A    between atoms: _196  and  _199
REMARK   83  A    between atoms: _199  and  _200
REMARK   84  A    between atoms: _200  and  _201
REMARK   85  A    between atoms: _201  and  _202
REMARK   86  A    between atoms: _211  and  _213
REMARK   87  A    between atoms: _213  and  _214
REMARK   88  A    between atoms: _213  and  _216
REMARK   89  A    between atoms: _216  and  _217
REMARK   90  A    between atoms: _222  and  _224
REMARK   91  A    between atoms: _224  and  _225
REMARK   92  A    between atoms: _224  and  _227
REMARK   93  A    between atoms: _227  and  _228
REMARK   94  A    between atoms: _231  and  _233
REMARK   95  A    between atoms: _233  and  _234
REMARK   96  A    between atoms: _236  and  _238
REMARK   97  A    between atoms: _238  and  _239
REMARK   98  A    between atoms: _238  and  _241
REMARK   99  A    between atoms: _241  and  _242
REMARK  100  A    between atoms: _252  and  _254
REMARK  101  A    between atoms: _254  and  _255
REMARK  102  A    between atoms: _254  and  _257
REMARK  103  A    between atoms: _257  and  _258
REMARK  104  A    between atoms: _259  and  _261
REMARK  105  A    between atoms: _261  and  _262
REMARK  106  A    between atoms: _261  and  _264
REMARK  107  A    between atoms: _264  and  _265
REMARK  108  A    between atoms: _268  and  _270
REMARK  109  A    between atoms: _270  and  _271
REMARK  110  A    between atoms: _273  and  _275
REMARK  111  A    between atoms: _275  and  _276
REMARK  112  A    between atoms: _275  and  _278
REMARK  113  A    between atoms: _278  and  _279
REMARK  114  A    between atoms: _284  and  _285
REMARK  115  A    between atoms: _287  and  _289
REMARK  116  A    between atoms: _289  and  _290
REMARK  117  A    between atoms: _289  and  _292
REMARK  118  A    between atoms: _292  and  _293
REMARK  119  A    between atoms: _293  and  _294
REMARK  120  A    between atoms: _294  and  _295
REMARK  121  A    between atoms: _304  and  _306
REMARK  122  A    between atoms: _306  and  _307
REMARK  123  A    between atoms: _306  and  _309
REMARK  124  A    between atoms: _309  and  _310
REMARK  125  A    between atoms: _310  and  _311
REMARK  126  A    between atoms: _311  and  _312
REMARK  127  A    between atoms: _312  and  _313
REMARK  128  A    between atoms: _317  and  _319
REMARK  129  A    between atoms: _319  and  _320
REMARK  130  A    between atoms: _322  and  _324
REMARK  131  A    between atoms: _324  and  _325
REMARK  132  A    between atoms: _328  and  _330
REMARK  133  A    between atoms: _330  and  _331
REMARK  134  A    between atoms: _330  and  _333
REMARK  135  A    between atoms: _333  and  _334
REMARK  136  A    between atoms: _339  and  _341
REMARK  137  A    between atoms: _341  and  _342
REMARK  138  A    between atoms: _345  and  _347
REMARK  139  A    between atoms: _347  and  _348
REMARK  140  A    between atoms: _351  and  _352
REMARK  141  A    between atoms: _357  and  _359
REMARK  142  A    between atoms: _359  and  _360
REMARK  143  A    between atoms: _359  and  _362
REMARK  144  A    between atoms: _362  and  _363
REMARK  145  A    between atoms: _366  and  _368
REMARK  146  A    between atoms: _368  and  _369
REMARK  147  A    between atoms: _368  and  _371
REMARK  148  A    between atoms: _371  and  _372
REMARK  149  A    between atoms: _382  and  _384
REMARK  150  A    between atoms: _384  and  _385
REMARK  151  A    between atoms: _384  and  _387
REMARK  152  A    between atoms: _387  and  _388
REMARK  153  A    between atoms: _394  and  _395
REMARK  154  A    between atoms: _400  and  _402
REMARK  155  A    between atoms: _402  and  _403
REMARK  156  A    between atoms: _402  and  _405
REMARK  157  A    between atoms: _405  and  _406
REMARK  158  A    between atoms: _409  and  _411
REMARK  159  A    between atoms: _411  and  _412
REMARK  160  A    between atoms: _411  and  _414
REMARK  161  A    between atoms: _414  and  _415
REMARK  162  A    between atoms: _417  and  _419
REMARK  163  A    between atoms: _419  and  _420
REMARK  164  A    between atoms: _419  and  _422
REMARK  165  A    between atoms: _422  and  _423
REMARK  166  A    between atoms: _428  and  _430
REMARK  167  A    between atoms: _430  and  _431
REMARK  168  A    between atoms: _430  and  _433
REMARK  169  A    between atoms: _436  and  _438
REMARK  170  A    between atoms: _438  and  _439
REMARK  171  A    between atoms: _438  and  _441
REMARK  172  A    between atoms: _441  and  _442
REMARK  173  A    between atoms: _442  and  _443
REMARK  174  A    between atoms: _449  and  _450
REMARK  175  A    between atoms: _455  and  _457
REMARK  176  A    between atoms: _457  and  _458
REMARK  177  A    between atoms: _457  and  _460
REMARK  178  A    between atoms: _460  and  _461
REMARK  179  A    between atoms: _464  and  _466
REMARK  180  A    between atoms: _466  and  _467
REMARK  181  A    between atoms: _466  and  _469
REMARK  182  A    between atoms: _469  and  _470
REMARK  183  A    between atoms: _473  and  _475
REMARK  184  A    between atoms: _475  and  _476
REMARK  185  A    between atoms: _475  and  _478
REMARK  186  A    between atoms: _478  and  _479
REMARK  187  A    between atoms: _481  and  _483
REMARK  188  A    between atoms: _483  and  _484
REMARK  189  A    between atoms: _483  and  _486
REMARK  190  A    between atoms: _486  and  _487
REMARK  191  A    between atoms: _492  and  _493
REMARK  192  A    between atoms: _495  and  _497
REMARK  193  A    between atoms: _497  and  _498
REMARK  194  A    between atoms: _497  and  _500
REMARK  195  A    between atoms: _500  and  _501
REMARK  196  A    between atoms: _506  and  _508
REMARK  197  A    between atoms: _508  and  _509
REMARK  198  A    between atoms: _508  and  _511
REMARK  199  A    between atoms: _511  and  _512
REMARK  200  A    between atoms: _515  and  _517
REMARK  201  A    between atoms: _517  and  _518
REMARK  202  A    between atoms: _517  and  _520
REMARK  203  A    between atoms: _520  and  _521
REMARK  204  A    between atoms: _531  and  _533
REMARK  205  A    between atoms: _533  and  _534
REMARK  206  A    between atoms: _536  and  _538
REMARK  207  A    between atoms: _538  and  _539
REMARK  208  A    between atoms: _538  and  _541
REMARK  209  A    between atoms: _541  and  _542
REMARK  210  A    between atoms: _547  and  _548
REMARK  211  A    between atoms: _550  and  _552
REMARK  212  A    between atoms: _552  and  _553
REMARK  213  A    between atoms: _552  and  _555
REMARK  214  A    between atoms: _555  and  _556
REMARK  215  A    between atoms: _556  and  _557
REMARK  216  A    between atoms: _557  and  _558
REMARK  217  A    between atoms: _567  and  _569
REMARK  218  A    between atoms: _569  and  _570
REMARK  219  A    between atoms: _569  and  _572
REMARK  220  A    between atoms: _572  and  _573
REMARK  221  A    between atoms: _573  and  _574
REMARK  222  A    between atoms: _574  and  _575
REMARK  223  A    between atoms: _575  and  _576
REMARK  224  A    between atoms: _580  and  _582
REMARK  225  A    between atoms: _582  and  _583
REMARK  226  A    between atoms: _585  and  _587
REMARK  227  A    between atoms: _587  and  _588
REMARK  228  A    between atoms: _591  and  _593
REMARK  229  A    between atoms: _593  and  _594
REMARK  230  A    between atoms: _593  and  _596
REMARK  231  A    between atoms: _596  and  _597
REMARK  232  A    between atoms: _602  and  _604
REMARK  233  A    between atoms: _604  and  _605
REMARK  234  A    between atoms: _608  and  _610
REMARK  235  A    between atoms: _610  and  _611
REMARK  236  A    between atoms: _614  and  _615
REMARK  237  A    between atoms: _620  and  _622
REMARK  238  A    between atoms: _622  and  _623
REMARK  239  A    between atoms: _622  and  _625
REMARK  240  A    between atoms: _625  and  _626
REMARK  241  A    between atoms: _629  and  _631
REMARK  242  A    between atoms: _631  and  _632
REMARK  243  A    between atoms: _631  and  _634
REMARK  244  A    between atoms: _634  and  _635
REMARK  245  A    between atoms: _645  and  _647
REMARK  246  A    between atoms: _647  and  _648
REMARK  247  A    between atoms: _647  and  _650
REMARK  248  A    between atoms: _650  and  _651
REMARK  249  A    between atoms: _657  and  _658
REMARK  250  A    between atoms: _663  and  _665
REMARK  251  A    between atoms: _665  and  _666
REMARK  252  A    between atoms: _665  and  _668
REMARK  253  A    between atoms: _668  and  _669
REMARK  254  A    between atoms: _672  and  _674
REMARK  255  A    between atoms: _674  and  _675
REMARK  256  A    between atoms: _674  and  _677
REMARK  257  A    between atoms: _677  and  _678
REMARK  258  A    between atoms: _678  and  _679
REMARK  259  A    between atoms: _682  and  _684
REMARK  260  A    between atoms: _684  and  _685
REMARK  261  A    between atoms: _684  and  _687
REMARK  262  A    between atoms: _687  and  _688
REMARK  263  A    between atoms: _688  and  _689
REMARK  264  A    between atoms: _689  and  _690
REMARK  265  A    between atoms: _690  and  _691
REMARK  266  A    between atoms: _695  and  _697
REMARK  267  A    between atoms: _697  and  _698
REMARK  268  A    between atoms: _700  and  _702
REMARK  269  A    between atoms: _702  and  _703
REMARK  270  A    between atoms: _702  and  _705
REMARK  271  A    between atoms: _705  and  _706
REMARK  272  A    between atoms: _711  and  _713
REMARK  273  A    between atoms: _713  and  _714
REMARK  274  A    between atoms: _713  and  _716
REMARK  275  A    between atoms: _716  and  _717
REMARK  276  A    between atoms: _717  and  _718
REMARK  277  A    between atoms: _718  and  _719
REMARK  278  A    between atoms: _728  and  _730
REMARK  279  A    between atoms: _730  and  _731
REMARK  280  A    between atoms: _730  and  _733
REMARK  281  A    between atoms: _733  and  _734
REMARK  282  A    between atoms: _737  and  _739
REMARK  283  A    between atoms: _739  and  _740
REMARK  284  A    between atoms: _739  and  _742
REMARK  285  A    between atoms: _745  and  _747
REMARK  286  A    between atoms: _747  and  _748
REMARK  287  A    between atoms: _747  and  _750
REMARK  288  A    between atoms: _750  and  _751
REMARK  289  A    between atoms: _751  and  _752
REMARK  290  A    between atoms: _758  and  _759
REMARK  291  A    between atoms: _764  and  _766
REMARK  292  A    between atoms: _766  and  _767
REMARK  293  A    between atoms: _766  and  _769
REMARK  294  A    between atoms: _769  and  _770
REMARK  295  A    between atoms: _773  and  _775
REMARK  296  A    between atoms: _775  and  _776
REMARK  297  A    between atoms: _775  and  _778
REMARK  298  A    between atoms: _778  and  _779
REMARK  299  A    between atoms: _782  and  _784
REMARK  300  A    between atoms: _784  and  _785
REMARK  301  A    between atoms: _784  and  _787
REMARK  302  A    between atoms: _787  and  _788
REMARK  303  A    between atoms: _790  and  _792
REMARK  304  A    between atoms: _792  and  _793
REMARK  305  A    between atoms: _792  and  _795
REMARK  306  A    between atoms: _795  and  _796
REMARK  307  A    between atoms: _796  and  _797
REMARK  308  A    between atoms: _797  and  _798
REMARK  309  A    between atoms: _807  and  _809
REMARK  310  A    between atoms: _809  and  _810
REMARK                            x       y       z     vdW  Elec       q    Type
REMARK                         _______ _______ _______ _____ _____    ______ ____
ROOT
ATOM      1  CA  VAL A   1     -33.875 -31.481 -38.553  0.00  0.00    +0.133 C 
ENDROOT
BRANCH   1   2
ATOM      2  CB  VAL A   1     -33.473 -30.154 -37.861  0.00  0.00    +0.023 C 
ATOM      3  CG2 VAL A   1     -34.510 -29.799 -36.785  0.00  0.00    +0.002 C 
ATOM      4  CG1 VAL A   1     -32.059 -30.288 -37.277  0.00  0.00    +0.002 C 
ENDBRANCH   1   2
BRANCH   1   5
ATOM      5  N   VAL A   1     -33.034 -31.747 -39.696  0.00  0.00    -0.239 NA
ATOM      6  H   VAL A   1     -32.317 -31.047 -39.974  0.00  0.00    +0.142 HD
ENDBRANCH   1   5
BRANCH   1   7
ATOM      7  C   VAL A   1     -35.324 -31.394 -39.013  0.00  0.00    +0.224 C 
ATOM      8  O   VAL A   1     -36.193 -32.048 -38.447  0.00  0.00    -0.287 OA
ENDBRANCH   1   7
TORSDOF 3
REMARK  Name = ../refined-set-2016/3rt4/3rt4_pocket.pdb
REMARK  310 active torsions:
REMARK  status: ('A' for Active; 'I' for Inactive)
REMARK    1  A    between atoms: _1  and  _3
REMARK    2  A    between atoms: _3  and  _4
REMARK    3  A    between atoms: _3  and  _6
REMARK    4  A    between atoms: _6  and  _7
REMARK    5  A    between atoms: _7  and  _8
REMARK    6  A    between atoms: _8  and  _9
REMARK    7  A    between atoms: _18  and  _20
REMARK    8  A    between atoms: _20  and  _21
REMARK    9  A    between atoms: _20  and  _23
REMARK   10  A    between atoms: _26  and  _28
REMARK   11  A    between atoms: _28  and  _29
REMARK   12  A    between atoms: _28  and  _31
REMARK   13  A    between atoms: _31  and  _32
REMARK   14  A    between atoms: _32  and  _33
REMARK   15  A    between atoms: _33  and  _34
REMARK   16  A    between atoms: _43  and  _45
REMARK   17  A    between atoms: _45  and  _46
REMARK   18  A    between atoms: _45  and  _48
REMARK   19  A    between atoms: _48  and  _49
REMARK   20  A    between atoms: _51  and  _53
REMARK   21  A    between atoms: _53  and  _54
REMARK   22  A    between atoms: _53  and  _56
REMARK   23  A    between atoms: _56  and  _57
REMARK   24  A    between atoms: _62  and  _64
REMARK   25  A    between atoms: _64  and  _65
REMARK   26  A    between atoms: _64  and  _67
REMARK   27  A    between atoms: _67  and  _68
REMARK   28  A    between atoms: _73  and  _74
REMARK   29  A    between atoms: _76  and  _78
REMARK   30  A    between atoms: _78  and  _79
REMARK   31  A    between atoms: _78  and  _81
REMARK   32  A    between atoms: _81  and  _82
REMARK   33  A    between atoms: _82  and  _83
REMARK   34  A    between atoms: _86  and  _88
REMARK   35  A    between atoms: _88  and  _89
REMARK   36  A    between atoms: _88  and  _91
REMARK   37  A    between atoms: _91  and  _92
REMARK   38  A    between atoms: _92  and  _93
REMARK   39  A    between atoms: _93  and  _94
REMARK   40  A    between atoms: _94  and  _95
REMARK   41  A    between atoms: _99  and  _101
REMARK   42  A    between atoms: _101  and  _102
REMARK   43  A    between atoms: _101  and  _104
REMARK   44  A    between atoms: _104  and  _105
REMARK   45  A    between atoms: _110  and  _111
REMARK   46  A    between atoms: _113  and  _115
REMARK   47  A    between atoms: _115  and  _116
REMARK   48  A    between atoms: _115  and  _118
REMARK   49  A    between atoms: _118  and  _119
REMARK   50  A    between atoms: _119  and  _120
REMARK   51  A    between atoms: _120  and  _121
REMARK   52  A    between atoms: _130  and  _132
REMARK   53  A    between atoms: _132  and  _133
REMARK   54  A    between atoms: _136  and  _138
REMARK   55  A    between atoms: _138  and  _139
REMARK   56  A    between atoms: _138  and  _141
REMARK   57  A    between atoms: _141  and  _142
REMARK   58  A    between atoms: _142  and  _258
REMARK   59  A    between atoms: _143  and  _145
REMARK   60  A    between atoms: _145  and  _146
REMARK   61  A    between atoms: _145  and  _148
REMARK   62  A    between atoms: _148  and  _149
REMARK   63  A    between atoms: _149  and  _150
REMARK   64  A    between atoms: _153  and  _155
REMARK   65  A    between atoms: _155  and  _156
REMARK   66  A    between atoms: _155  and  _158
REMARK   67  A    between atoms: _158  and  _159
REMARK   68  A    between atoms: _161  and  _163
REMARK   69  A    between atoms: _163  and  _164
REMARK   70  A    between atoms: _163  and  _166
REMARK   71  A    between atoms: _166  and  _167
REMARK   72  A    between atoms: _172  and  _173
REMARK   73  A    between atoms: _175  and  _177
REMARK   74  A    between atoms: _177  and  _178
REMARK   75  A    between atoms: _177  and  _180
REMARK   76  A    between atoms: _180  and  _181
REMARK   77  A    between atoms: _186  and  _188
REMARK   78  A    between atoms: _188  and  _189
REMARK   79  A    between atoms: _188  and  _191
REMARK   80  A    between atoms: _194  and  _196
REMARK   81  A    between atoms: _196  and  _197
REMARK   82  A    between atoms: _196  and  _199
REMARK   83  A    between atoms: _199  and  _200
REMARK   84  A    between atoms: _200  and  _201
REMARK   85  A    between atoms: _201  and  _202
REMARK   86  A    between atoms: _211  and  _213
REMARK   87  A    between atoms: _213  and  _214
REMARK   88  A    between atoms: _213  and  _216
REMARK   89  A    between atoms: _216  and  _217
REMARK   90  A    between atoms: _222  and  _224
REMARK   91  A    between atoms: _224  and  _225
REMARK   92  A    between atoms: _224  and  _227
REMARK   93  A    between atoms: _227  and  _228
REMARK   94  A    between atoms: _231  and  _233
REMARK   95  A    between atoms: _233  and  _234
REMARK   96  A    between atoms: _236  and  _238
REMARK   97  A    between atoms: _238  and  _239
REMARK   98  A    between atoms: _238  and  _241
REMARK   99  A    between atoms: _241  and  _242
REMARK  100  A    between atoms: _252  and  _254
REMARK  101  A    between atoms: _254  and  _255
REMARK  102  A    between atoms: _254  and  _257
REMARK  103  A    between atoms: _257  and  _258
REMARK  104  A    between atoms: _259  and  _261
REMARK  105  A    between atoms: _261  and  _262
REMARK  106  A    between atoms: _261  and  _264
REMARK  107  A    between atoms: _264  and  _265
REMARK  108  A    between atoms: _268  and  _270
REMARK  109  A    between atoms: _270  and  _271
REMARK  110  A    between atoms: _273  and  _275
REMARK  111  A    between atoms: _275  and  _276
REMARK  112  A    between atoms: _275  and  _278
REMARK  113  A    between atoms: _278  and  _279
REMARK  114  A    between atoms: _284  and  _285
REMARK  115  A    between atoms: _287  and  _289
REMARK  116  A    between atoms: _289  and  _290
REMARK  117  A    between atoms: _289  and  _292
REMARK  118  A    between atoms: _292  and  _293
REMARK  119  A    between atoms: _293  and  _294
REMARK  120  A    between atoms: _294  and  _295
REMARK  121  A    between atoms: _304  and  _306
REMARK  122  A    between atoms: _306  and  _307
REMARK  123  A    between atoms: _306  and  _309
REMARK  124  A    between atoms: _309  and  _310
REMARK  125  A    between atoms: _310  and  _311
REMARK  126  A    between atoms: _311  and  _312
REMARK  127  A    between atoms: _312  and  _313
REMARK  128  A    between atoms: _317  and  _319
REMARK  129  A    between atoms: _319  and  _320
REMARK  130  A    between atoms: _322  and  _324
REMARK  131  A    between atoms: _324  and  _325
REMARK  132  A    between atoms: _328  and  _330
REMARK  133  A    between atoms: _330  and  _331
REMARK  134  A    between atoms: _330  and  _333
REMARK  135  A    between atoms: _333  and  _334
REMARK  136  A    between atoms: _339  and  _341
REMARK  137  A    between atoms: _341  and  _342
REMARK  138  A    between atoms: _345  and  _347
REMARK  139  A    between atoms: _347  and  _348
REMARK  140  A    between atoms: _351  and  _352
REMARK  141  A    between atoms: _357  and  _359
REMARK  142  A    between atoms: _359  and  _360
REMARK  143  A    between atoms: _359  and  _362
REMARK  144  A    between atoms: _362  and  _363
REMARK  145  A    between atoms: _366  and  _368
REMARK  146  A    between atoms: _368  and  _369
REMARK  147  A    between atoms: _368  and  _371
REMARK  148  A    between atoms: _371  and  _372
REMARK  149  A    between atoms: _382  and  _384
REMARK  150  A    between atoms: _384  and  _385
REMARK  151  A    between atoms: _384  and  _387
REMARK  152  A    between atoms: _387  and  _388
REMARK  153  A    between atoms: _394  and  _395
REMARK  154  A    between atoms: _400  and  _402
REMARK  155  A    between atoms: _402  and  _403
REMARK  156  A    between atoms: _402  and  _405
REMARK  157  A    between atoms: _405  and  _406
REMARK  158  A    between atoms: _409  and  _411
REMARK  159  A    between atoms: _411  and  _412
REMARK  160  A    between atoms: _411  and  _414
REMARK  161  A    between atoms: _414  and  _415
REMARK  162  A    between atoms: _417  and  _419
REMARK  163  A    between atoms: _419  and  _420
REMARK  164  A    between atoms: _419  and  _422
REMARK  165  A    between atoms: _422  and  _423
REMARK  166  A    between atoms: _428  and  _430
REMARK  167  A    between atoms: _430  and  _431
REMARK  168  A    between atoms: _430  and  _433
REMARK  169  A    between atoms: _436  and  _438
REMARK  170  A    between atoms: _438  and  _439
REMARK  171  A    between atoms: _438  and  _441
REMARK  172  A    between atoms: _441  and  _442
REMARK  173  A    between atoms: _442  and  _443
REMARK  174  A    between atoms: _449  and  _450
REMARK  175  A    between atoms: _455  and  _457
REMARK  176  A    between atoms: _457  and  _458
REMARK  177  A    between atoms: _457  and  _460
REMARK  178  A    between atoms: _460  and  _461
REMARK  179  A    between atoms: _464  and  _466
REMARK  180  A    between atoms: _466  and  _467
REMARK  181  A    between atoms: _466  and  _469
REMARK  182  A    between atoms: _469  and  _470
REMARK  183  A    between atoms: _473  and  _475
REMARK  184  A    between atoms: _475  and  _476
REMARK  185  A    between atoms: _475  and  _478
REMARK  186  A    between atoms: _478  and  _479
REMARK  187  A    between atoms: _481  and  _483
REMARK  188  A    between atoms: _483  and  _484
REMARK  189  A    between atoms: _483  and  _486
REMARK  190  A    between atoms: _486  and  _487
REMARK  191  A    between atoms: _492  and  _493
REMARK  192  A    between atoms: _495  and  _497
REMARK  193  A    between atoms: _497  and  _498
REMARK  194  A    between atoms: _497  and  _500
REMARK  195  A    between atoms: _500  and  _501
REMARK  196  A    between atoms: _506  and  _508
REMARK  197  A    between atoms: _508  and  _509
REMARK  198  A    between atoms: _508  and  _511
REMARK  199  A    between atoms: _511  and  _512
REMARK  200  A    between atoms: _515  and  _517
REMARK  201  A    between atoms: _517  and  _518
REMARK  202  A    between atoms: _517  and  _520
REMARK  203  A    between atoms: _520  and  _521
REMARK  204  A    between atoms: _531  and  _533
REMARK  205  A    between atoms: _533  and  _534
REMARK  206  A    between atoms: _536  and  _538
REMARK  207  A    between atoms: _538  and  _539
REMARK  208  A    between atoms: _538  and  _541
REMARK  209  A    between atoms: _541  and  _542
REMARK  210  A    between atoms: _547  and  _548
REMARK  211  A    between atoms: _550  and  _552
REMARK  212  A    between atoms: _552  and  _553
REMARK  213  A    between atoms: _552  and  _555
REMARK  214  A    between atoms: _555  and  _556
REMARK  215  A    between atoms: _556  and  _557
REMARK  216  A    between atoms: _557  and  _558
REMARK  217  A    between atoms: _567  and  _569
REMARK  218  A    between atoms: _569  and  _570
REMARK  219  A    between atoms: _569  and  _572
REMARK  220  A    between atoms: _572  and  _573
REMARK  221  A    between atoms: _573  and  _574
REMARK  222  A    between atoms: _574  and  _575
REMARK  223  A    between atoms: _575  and  _576
REMARK  224  A    between atoms: _580  and  _582
REMARK  225  A    between atoms: _582  and  _583
REMARK  226  A    between atoms: _585  and  _587
REMARK  227  A    between atoms: _587  and  _588
REMARK  228  A    between atoms: _591  and  _593
REMARK  229  A    between atoms: _593  and  _594
REMARK  230  A    between atoms: _593  and  _596
REMARK  231  A    between atoms: _596  and  _597
REMARK  232  A    between atoms: _602  and  _604
REMARK  233  A    between atoms: _604  and  _605
REMARK  234  A    between atoms: _608  and  _610
REMARK  235  A    between atoms: _610  and  _611
REMARK  236  A    between atoms: _614  and  _615
REMARK  237  A    between atoms: _620  and  _622
REMARK  238  A    between atoms: _622  and  _623
REMARK  239  A    between atoms: _622  and  _625
REMARK  240  A    between atoms: _625  and  _626
REMARK  241  A    between atoms: _629  and  _631
REMARK  242  A    between atoms: _631  and  _632
REMARK  243  A    between atoms: _631  and  _634
REMARK  244  A    between atoms: _634  and  _635
REMARK  245  A    between atoms: _645  and  _647
REMARK  246  A    between atoms: _647  and  _648
REMARK  247  A    between atoms: _647  and  _650
REMARK  248  A    between atoms: _650  and  _651
REMARK  249  A    between atoms: _657  and  _658
REMARK  250  A    between atoms: _663  and  _665
REMARK  251  A    between atoms: _665  and  _666
REMARK  252  A    between atoms: _665  and  _668
REMARK  253  A    between atoms: _668  and  _669
REMARK  254  A    between atoms: _672  and  _674
REMARK  255  A    between atoms: _674  and  _675
REMARK  256  A    between atoms: _674  and  _677
REMARK  257  A    between atoms: _677  and  _678
REMARK  258  A    between atoms: _678  and  _679
REMARK  259  A    between atoms: _682  and  _684
REMARK  260  A    between atoms: _684  and  _685
REMARK  261  A    between atoms: _684  and  _687
REMARK  262  A    between atoms: _687  and  _688
REMARK  263  A    between atoms: _688  and  _689
REMARK  264  A    between atoms: _689  and  _690
REMARK  265  A    between atoms: _690  and  _691
REMARK  266  A    between atoms: _695  and  _697
REMARK  267  A    between atoms: _697  and  _698
REMARK  268  A    between atoms: _700  and  _702
REMARK  269  A    between atoms: _702  and  _703
REMARK  270  A    between atoms: _702  and  _705
REMARK  271  A    between atoms: _705  and  _706
REMARK  272  A    between atoms: _711  and  _713
REMARK  273  A    between atoms: _713  and  _714
REMARK  274  A    between atoms: _713  and  _716
REMARK  275  A    between atoms: _716  and  _717
REMARK  276  A    between atoms: _717  and  _718
REMARK  277  A    between atoms: _718  and  _719
REMARK  278  A    between atoms: _728  and  _730
REMARK  279  A    between atoms: _730  and  _731
REMARK  280  A    between atoms: _730  and  _733
REMARK  281  A    between atoms: _733  and  _734
REMARK  282  A    between atoms: _737  and  _739
REMARK  283  A    between atoms: _739  and  _740
REMARK  284  A    between atoms: _739  and  _742
REMARK  285  A    between atoms: _745  and  _747
REMARK  286  A    between atoms: _747  and  _748
REMARK  287  A    between atoms: _747  and  _750
REMARK  288  A    between atoms: _750  and  _751
REMARK  289  A    between atoms: _751  and  _752
REMARK  290  A    between atoms: _758  and  _759
REMARK  291  A    between atoms: _764  and  _766
REMARK  292  A    between atoms: _766  and  _767
REMARK  293  A    between atoms: _766  and  _769
REMARK  294  A    between atoms: _769  and  _770
REMARK  295  A    between atoms: _773  and  _775
REMARK  296  A    between atoms: _775  and  _776
REMARK  297  A    between atoms: _775  and  _778
REMARK  298  A    between atoms: _778  and  _779
REMARK  299  A    between atoms: _782  and  _784
REMARK  300  A    between atoms: _784  and  _785
REMARK  301  A    between atoms: _784  and  _787
REMARK  302  A    between atoms: _787  and  _788
REMARK  303  A    between atoms: _790  and  _792
REMARK  304  A    between atoms: _792  and  _793
REMARK  305  A    between atoms: _792  and  _795
REMARK  306  A    between atoms: _795  and  _796
REMARK  307  A    between atoms: _796  and  _797
REMARK  308  A    between atoms: _797  and  _798
REMARK  309  A    between atoms: _807  and  _809
REMARK  310  A    between atoms: _809  and  _810
REMARK                            x       y       z     vdW  Elec       q    Type
REMARK                         _______ _______ _______ _____ _____    ______ ____
ROOT
ATOM      1  CA  ASN A   3     -30.612 -30.504 -30.725  0.00  0.00    +0.158 C 
ENDROOT
BRANCH   1   3
ATOM      2  C   SER A   2     -32.225 -30.094 -32.464  0.00  0.00    +0.243 C 
ATOM      3  N   ASN A   3     -31.832 -30.842 -31.435  0.00  0.00    -0.297 N 
ATOM      4  H   ASN A   3     -32.397 -31.665 -31.141  0.00  0.00    +0.150 HD
ATOM      5  O   SER A   2     -31.595 -29.094 -32.820  0.00  0.00    -0.273 OA
BRANCH   2   6
ATOM      6  CA  SER A   2     -33.504 -30.552 -33.204  0.00  0.00    +0.178 C 
BRANCH   6   8
ATOM      7  C   ARG A   1     -32.570 -32.732 -33.669  0.00  0.00    +0.238 C 
ATOM      8  N   SER A   2     -33.552 -32.014 -33.131  0.00  0.00    -0.295 N 
ATOM      9  H   SER A   2     -34.349 -32.488 -32.661  0.00  0.00    +0.150 HD
ATOM     10  O   ARG A   1     -31.632 -32.202 -34.275  0.00  0.00    -0.274 OA
BRANCH   7  11
ATOM     11  CA  ARG A   1     -32.638 -34.258 -33.531  0.00  0.00    +0.145 C 
BRANCH  11  12
ATOM     12  N   ARG A   1     -31.985 -34.821 -34.701  0.00  0.00    -0.238 NA
ATOM     13  H   ARG A   1     -31.071 -35.304 -34.590  0.00  0.00    +0.142 HD
ENDBRANCH  11  12
BRANCH  11  14
ATOM     14  CB  ARG A   1     -31.876 -34.612 -32.264  0.00  0.00    +0.030 C 
BRANCH  14  15
ATOM     15  CG  ARG A   1     -31.832 -36.069 -31.890  0.00  0.00    +0.045 C 
BRANCH  15  16
ATOM     16  CD  ARG A   1     -31.391 -36.183 -30.452  0.00  0.00    +0.174 C 
BRANCH  16  17
ATOM     17  NE  ARG A   1     -32.475 -35.676 -29.630  0.00  0.00    -0.265 N 
ATOM     18  CZ  ARG A   1     -33.510 -36.407 -29.241  0.00  0.00    +0.342 C 
ATOM     19  NH2 ARG A   1     -34.469 -35.849 -28.522  0.00  0.00    -0.292 N 
ATOM     20 HH21 ARG A   1     -35.284 -36.416 -28.213  0.00  0.00    +0.255 HD
ATOM     21 HH22 ARG A   1     -34.408 -34.843 -28.265  0.00  0.00    +0.255 HD
ATOM     22  NH1 ARG A   1     -33.548 -37.705 -29.508  0.00  0.00    -0.292 N 
ATOM     23 HH11 ARG A   1     -34.362 -38.275 -29.201  0.00  0.00    +0.255 HD
ATOM     24 HH12 ARG A   1     -32.764 -38.153 -30.024  0.00  0.00    +0.255 HD
ATOM     25  HE  ARG A   1     -32.437 -34.681 -29.329  0.00  0.00    +0.259 HD
ENDBRANCH  16  17
ENDBRANCH  15  16
ENDBRANCH  14  15
ENDBRANCH  11  14
ENDBRANCH   7  11
ENDBRANCH   6   8
BRANCH   6  26
ATOM     26  CB  SER A   2     -34.758 -29.937 -32.566  0.00  0.00    +0.166 C 
BRANCH  26  27
ATOM     27  OG  SER A   2     -34.910 -30.267 -31.191  0.00  0.00    -0.380 OA
ATOM     28  H   SER A   2     -34.977 -31.250 -31.094  0.00  0.00    +0.211 HD
ENDBRANCH  26  27
ENDBRANCH   6  26
ENDBRANCH   2   6
ENDBRANCH   1   3
BRANCH   1  29
ATOM     29  C   ASN A   3     -29.427 -31.405 -31.121  0.00  0.00    +0.241 C 
ATOM     30  O   ASN A   3     -28.661 -31.819 -30.263  0.00  0.00    -0.273 OA
ATOM     31  N   TYR A   4     -29.271 -31.723 -32.407  0.00  0.00    -0.297 N 
ATOM     32  H   TYR A   4     -29.943 -31.374 -33.120  0.00  0.00    +0.150 HD
BRANCH  31  33
ATOM     33  CA  TYR A   4     -28.145 -32.567 -32.805  0.00  0.00    +0.153 C 
BRANCH  33  34
ATOM     34  C   TYR A   4     -26.839 -31.825 -32.479  0.00  0.00    +0.241 C 
ATOM     35  O   TYR A   4     -26.813 -30.604 -32.254  0.00  0.00    -0.273 OA
ATOM     36  N   GLU A   5     -25.767 -32.605 -32.417  0.00  0.00    -0.298 N 
ATOM     37  H   GLU A   5     -25.895 -33.626 -32.566  0.00  0.00    +0.150 HD
BRANCH  36  38
ATOM     38  CA  GLU A   5     -24.426 -32.116 -32.154  0.00  0.00    +0.137 C 
BRANCH  38  39
ATOM     39  C   GLU A   5     -23.525 -32.501 -33.316  0.00  0.00    +0.227 C 
ATOM     40  O   GLU A   5     -23.553 -33.625 -33.834  0.00  0.00    -0.286 OA
ENDBRANCH  38  39
BRANCH  38  41
ATOM     41  CB  GLU A   5     -23.876 -32.727 -30.883  0.00  0.00    +0.039 C 
BRANCH  41  42
ATOM     42  CG  GLU A   5     -24.704 -32.407 -29.683  0.00  0.00    +0.116 C 
BRANCH  42  43
ATOM     43  CD  GLU A   5     -24.312 -33.247 -28.508  0.00  0.00    +0.365 C 
ATOM     44  OE2 GLU A   5     -25.188 -33.510 -27.656  0.00  0.00    -0.246 OA
ATOM     45  OE1 GLU A   5     -23.119 -33.629 -28.435  0.00  0.00    -0.246 OA
ENDBRANCH  42  43
ENDBRANCH  41  42
ENDBRANCH  38  41
ENDBRANCH  36  38
ENDBRANCH  33  34
BRANCH  33  46
ATOM     46  CB  TYR A   4     -28.165 -32.887 -34.311  0.00  0.00    +0.055 C 
BRANCH  46  47
ATOM     47  CG  TYR A   4     -27.900 -31.690 -35.207  0.00  0.00    -0.020 A 
ATOM     48  CD2 TYR A   4     -28.926 -30.811 -35.537  0.00  0.00    -0.001 A 
ATOM     49  CE2 TYR A   4     -28.683 -29.637 -36.282  0.00  0.00    +0.036 A 
ATOM     50  CZ  TYR A   4     -27.385 -29.349 -36.716  0.00  0.00    +0.134 A 
ATOM     51  CE1 TYR A   4     -26.350 -30.223 -36.403  0.00  0.00    +0.036 A 
ATOM     52  CD1 TYR A   4     -26.611 -31.386 -35.652  0.00  0.00    -0.001 A 
BRANCH  50  53
ATOM     53  OH  TYR A   4     -27.103 -28.220 -37.466  0.00  0.00    -0.506 OA
ATOM     54  HH  TYR A   4     -26.135 -28.196 -37.673  0.00  0.00    +0.292 HD
ENDBRANCH  50  53
ENDBRANCH  46  47
ENDBRANCH  33  46
ENDBRANCH  31  33
ENDBRANCH   1  29
BRANCH   1  55
ATOM     55  CB  ASN A   3     -30.848 -30.556 -29.213  0.00  0.00    +0.114 C 
BRANCH  55  56
ATOM     56  CG  ASN A   3     -31.277 -31.930 -28.732  0.00  0.00    +0.222 C 
ATOM     57  ND2 ASN A   3     -31.047 -32.206 -27.451  0.00  0.00    -0.329 N 
ATOM     58 HD21 ASN A   3     -30.588 -31.500 -26.841  0.00  0.00    +0.145 HD
ATOM     59 HD22 ASN A   3     -31.326 -33.128 -27.059  0.00  0.00    +0.145 HD
ATOM     60  OD1 ASN A   3     -31.817 -32.730 -29.497  0.00  0.00    -0.275 OA
ENDBRANCH  55  56
ENDBRANCH   1  55
TORSDOF 24
REMARK  Name = ../refined-set-2016/3rt4/3rt4_pocket.pdb
REMARK  310 active torsions:
REMARK  status: ('A' for Active; 'I' for Inactive)
REMARK    1  A    between atoms: _1  and  _3
REMARK    2  A    between atoms: _3  and  _4
REMARK    3  A    between atoms: _3  and  _6
REMARK    4  A    between atoms: _6  and  _7
REMARK    5  A    between atoms: _7  and  _8
REMARK    6  A    between atoms: _8  and  _9
REMARK    7  A    between atoms: _18  and  _20
REMARK    8  A    between atoms: _20  and  _21
REMARK    9  A    between atoms: _20  and  _23
REMARK   10  A    between atoms: _26  and  _28
REMARK   11  A    between atoms: _28  and  _29
REMARK   12  A    between atoms: _28  and  _31
REMARK   13  A    between atoms: _31  and  _32
REMARK   14  A    between atoms: _32  and  _33
REMARK   15  A    between atoms: _33  and  _34
REMARK   16  A    between atoms: _43  and  _45
REMARK   17  A    between atoms: _45  and  _46
REMARK   18  A    between atoms: _45  and  _48
REMARK   19  A    between atoms: _48  and  _49
REMARK   20  A    between atoms: _51  and  _53
REMARK   21  A    between atoms: _53  and  _54
REMARK   22  A    between atoms: _53  and  _56
REMARK   23  A    between atoms: _56  and  _57
REMARK   24  A    between atoms: _62  and  _64
REMARK   25  A    between atoms: _64  and  _65
REMARK   26  A    between atoms: _64  and  _67
REMARK   27  A    between atoms: _67  and  _68
REMARK   28  A    between atoms: _73  and  _74
REMARK   29  A    between atoms: _76  and  _78
REMARK   30  A    between atoms: _78  and  _79
REMARK   31  A    between atoms: _78  and  _81
REMARK   32  A    between atoms: _81  and  _82
REMARK   33  A    between atoms: _82  and  _83
REMARK   34  A    between atoms: _86  and  _88
REMARK   35  A    between atoms: _88  and  _89
REMARK   36  A    between atoms: _88  and  _91
REMARK   37  A    between atoms: _91  and  _92
REMARK   38  A    between atoms: _92  and  _93
REMARK   39  A    between atoms: _93  and  _94
REMARK   40  A    between atoms: _94  and  _95
REMARK   41  A    between atoms: _99  and  _101
REMARK   42  A    between atoms: _101  and  _102
REMARK   43  A    between atoms: _101  and  _104
REMARK   44  A    between atoms: _104  and  _105
REMARK   45  A    between atoms: _110  and  _111
REMARK   46  A    between atoms: _113  and  _115
REMARK   47  A    between atoms: _115  and  _116
REMARK   48  A    between atoms: _115  and  _118
REMARK   49  A    between atoms: _118  and  _119
REMARK   50  A    between atoms: _119  and  _120
REMARK   51  A    between atoms: _120  and  _121
REMARK   52  A    between atoms: _130  and  _132
REMARK   53  A    between atoms: _132  and  _133
REMARK   54  A    between atoms: _136  and  _138
REMARK   55  A    between atoms: _138  and  _139
REMARK   56  A    between atoms: _138  and  _141
REMARK   57  A    between atoms: _141  and  _142
REMARK   58  A    between atoms: _142  and  _258
REMARK   59  A    between atoms: _143  and  _145
REMARK   60  A    between atoms: _145  and  _146
REMARK   61  A    between atoms: _145  and  _148
REMARK   62  A    between atoms: _148  and  _149
REMARK   63  A    between atoms: _149  and  _150
REMARK   64  A    between atoms: _153  and  _155
REMARK   65  A    between atoms: _155  and  _156
REMARK   66  A    between atoms: _155  and  _158
REMARK   67  A    between atoms: _158  and  _159
REMARK   68  A    between atoms: _161  and  _163
REMARK   69  A    between atoms: _163  and  _164
REMARK   70  A    between atoms: _163  and  _166
REMARK   71  A    between atoms: _166  and  _167
REMARK   72  A    between atoms: _172  and  _173
REMARK   73  A    between atoms: _175  and  _177
REMARK   74  A    between atoms: _177  and  _178
REMARK   75  A    between atoms: _177  and  _180
REMARK   76  A    between atoms: _180  and  _181
REMARK   77  A    between atoms: _186  and  _188
REMARK   78  A    between atoms: _188  and  _189
REMARK   79  A    between atoms: _188  and  _191
REMARK   80  A    between atoms: _194  and  _196
REMARK   81  A    between atoms: _196  and  _197
REMARK   82  A    between atoms: _196  and  _199
REMARK   83  A    between atoms: _199  and  _200
REMARK   84  A    between atoms: _200  and  _201
REMARK   85  A    between atoms: _201  and  _202
REMARK   86  A    between atoms: _211  and  _213
REMARK   87  A    between atoms: _213  and  _214
REMARK   88  A    between atoms: _213  and  _216
REMARK   89  A    between atoms: _216  and  _217
REMARK   90  A    between atoms: _222  and  _224
REMARK   91  A    between atoms: _224  and  _225
REMARK   92  A    between atoms: _224  and  _227
REMARK   93  A    between atoms: _227  and  _228
REMARK   94  A    between atoms: _231  and  _233
REMARK   95  A    between atoms: _233  and  _234
REMARK   96  A    between atoms: _236  and  _238
REMARK   97  A    between atoms: _238  and  _239
REMARK   98  A    between atoms: _238  and  _241
REMARK   99  A    between atoms: _241  and  _242
REMARK  100  A    between atoms: _252  and  _254
REMARK  101  A    between atoms: _254  and  _255
REMARK  102  A    between atoms: _254  and  _257
REMARK  103  A    between atoms: _257  and  _258
REMARK  104  A    between atoms: _259  and  _261
REMARK  105  A    between atoms: _261  and  _262
REMARK  106  A    between atoms: _261  and  _264
REMARK  107  A    between atoms: _264  and  _265
REMARK  108  A    between atoms: _268  and  _270
REMARK  109  A    between atoms: _270  and  _271
REMARK  110  A    between atoms: _273  and  _275
REMARK  111  A    between atoms: _275  and  _276
REMARK  112  A    between atoms: _275  and  _278
REMARK  113  A    between atoms: _278  and  _279
REMARK  114  A    between atoms: _284  and  _285
REMARK  115  A    between atoms: _287  and  _289
REMARK  116  A    between atoms: _289  and  _290
REMARK  117  A    between atoms: _289  and  _292
REMARK  118  A    between atoms: _292  and  _293
REMARK  119  A    between atoms: _293  and  _294
REMARK  120  A    between atoms: _294  and  _295
REMARK  121  A    between atoms: _304  and  _306
REMARK  122  A    between atoms: _306  and  _307
REMARK  123  A    between atoms: _306  and  _309
REMARK  124  A    between atoms: _309  and  _310
REMARK  125  A    between atoms: _310  and  _311
REMARK  126  A    between atoms: _311  and  _312
REMARK  127  A    between atoms: _312  and  _313
REMARK  128  A    between atoms: _317  and  _319
REMARK  129  A    between atoms: _319  and  _320
REMARK  130  A    between atoms: _322  and  _324
REMARK  131  A    between atoms: _324  and  _325
REMARK  132  A    between atoms: _328  and  _330
REMARK  133  A    between atoms: _330  and  _331
REMARK  134  A    between atoms: _330  and  _333
REMARK  135  A    between atoms: _333  and  _334
REMARK  136  A    between atoms: _339  and  _341
REMARK  137  A    between atoms: _341  and  _342
REMARK  138  A    between atoms: _345  and  _347
REMARK  139  A    between atoms: _347  and  _348
REMARK  140  A    between atoms: _351  and  _352
REMARK  141  A    between atoms: _357  and  _359
REMARK  142  A    between atoms: _359  and  _360
REMARK  143  A    between atoms: _359  and  _362
REMARK  144  A    between atoms: _362  and  _363
REMARK  145  A    between atoms: _366  and  _368
REMARK  146  A    between atoms: _368  and  _369
REMARK  147  A    between atoms: _368  and  _371
REMARK  148  A    between atoms: _371  and  _372
REMARK  149  A    between atoms: _382  and  _384
REMARK  150  A    between atoms: _384  and  _385
REMARK  151  A    between atoms: _384  and  _387
REMARK  152  A    between atoms: _387  and  _388
REMARK  153  A    between atoms: _394  and  _395
REMARK  154  A    between atoms: _400  and  _402
REMARK  155  A    between atoms: _402  and  _403
REMARK  156  A    between atoms: _402  and  _405
REMARK  157  A    between atoms: _405  and  _406
REMARK  158  A    between atoms: _409  and  _411
REMARK  159  A    between atoms: _411  and  _412
REMARK  160  A    between atoms: _411  and  _414
REMARK  161  A    between atoms: _414  and  _415
REMARK  162  A    between atoms: _417  and  _419
REMARK  163  A    between atoms: _419  and  _420
REMARK  164  A    between atoms: _419  and  _422
REMARK  165  A    between atoms: _422  and  _423
REMARK  166  A    between atoms: _428  and  _430
REMARK  167  A    between atoms: _430  and  _431
REMARK  168  A    between atoms: _430  and  _433
REMARK  169  A    between atoms: _436  and  _438
REMARK  170  A    between atoms: _438  and  _439
REMARK  171  A    between atoms: _438  and  _441
REMARK  172  A    between atoms: _441  and  _442
REMARK  173  A    between atoms: _442  and  _443
REMARK  174  A    between atoms: _449  and  _450
REMARK  175  A    between atoms: _455  and  _457
REMARK  176  A    between atoms: _457  and  _458
REMARK  177  A    between atoms: _457  and  _460
REMARK  178  A    between atoms: _460  and  _461
REMARK  179  A    between atoms: _464  and  _466
REMARK  180  A    between atoms: _466  and  _467
REMARK  181  A    between atoms: _466  and  _469
REMARK  182  A    between atoms: _469  and  _470
REMARK  183  A    between atoms: _473  and  _475
REMARK  184  A    between atoms: _475  and  _476
REMARK  185  A    between atoms: _475  and  _478
REMARK  186  A    between atoms: _478  and  _479
REMARK  187  A    between atoms: _481  and  _483
REMARK  188  A    between atoms: _483  and  _484
REMARK  189  A    between atoms: _483  and  _486
REMARK  190  A    between atoms: _486  and  _487
REMARK  191  A    between atoms: _492  and  _493
REMARK  192  A    between atoms: _495  and  _497
REMARK  193  A    between atoms: _497  and  _498
REMARK  194  A    between atoms: _497  and  _500
REMARK  195  A    between atoms: _500  and  _501
REMARK  196  A    between atoms: _506  and  _508
REMARK  197  A    between atoms: _508  and  _509
REMARK  198  A    between atoms: _508  and  _511
REMARK  199  A    between atoms: _511  and  _512
REMARK  200  A    between atoms: _515  and  _517
REMARK  201  A    between atoms: _517  and  _518
REMARK  202  A    between atoms: _517  and  _520
REMARK  203  A    between atoms: _520  and  _521
REMARK  204  A    between atoms: _531  and  _533
REMARK  205  A    between atoms: _533  and  _534
REMARK  206  A    between atoms: _536  and  _538
REMARK  207  A    between atoms: _538  and  _539
REMARK  208  A    between atoms: _538  and  _541
REMARK  209  A    between atoms: _541  and  _542
REMARK  210  A    between atoms: _547  and  _548
REMARK  211  A    between atoms: _550  and  _552
REMARK  212  A    between atoms: _552  and  _553
REMARK  213  A    between atoms: _552  and  _555
REMARK  214  A    between atoms: _555  and  _556
REMARK  215  A    between atoms: _556  and  _557
REMARK  216  A    between atoms: _557  and  _558
REMARK  217  A    between atoms: _567  and  _569
REMARK  218  A    between atoms: _569  and  _570
REMARK  219  A    between atoms: _569  and  _572
REMARK  220  A    between atoms: _572  and  _573
REMARK  221  A    between atoms: _573  and  _574
REMARK  222  A    between atoms: _574  and  _575
REMARK  223  A    between atoms: _575  and  _576
REMARK  224  A    between atoms: _580  and  _582
REMARK  225  A    between atoms: _582  and  _583
REMARK  226  A    between atoms: _585  and  _587
REMARK  227  A    between atoms: _587  and  _588
REMARK  228  A    between atoms: _591  and  _593
REMARK  229  A    between atoms: _593  and  _594
REMARK  230  A    between atoms: _593  and  _596
REMARK  231  A    between atoms: _596  and  _597
REMARK  232  A    between atoms: _602  and  _604
REMARK  233  A    between atoms: _604  and  _605
REMARK  234  A    between atoms: _608  and  _610
REMARK  235  A    between atoms: _610  and  _611
REMARK  236  A    between atoms: _614  and  _615
REMARK  237  A    between atoms: _620  and  _622
REMARK  238  A    between atoms: _622  and  _623
REMARK  239  A    between atoms: _622  and  _625
REMARK  240  A    between atoms: _625  and  _626
REMARK  241  A    between atoms: _629  and  _631
REMARK  242  A    between atoms: _631  and  _632
REMARK  243  A    between atoms: _631  and  _634
REMARK  244  A    between atoms: _634  and  _635
REMARK  245  A    between atoms: _645  and  _647
REMARK  246  A    between atoms: _647  and  _648
REMARK  247  A    between atoms: _647  and  _650
REMARK  248  A    between atoms: _650  and  _651
REMARK  249  A    between atoms: _657  and  _658
REMARK  250  A    between atoms: _663  and  _665
REMARK  251  A    between atoms: _665  and  _666
REMARK  252  A    between atoms: _665  and  _668
REMARK  253  A    between atoms: _668  and  _669
REMARK  254  A    between atoms: _672  and  _674
REMARK  255  A    between atoms: _674  and  _675
REMARK  256  A    between atoms: _674  and  _677
REMARK  257  A    between atoms: _677  and  _678
REMARK  258  A    between atoms: _678  and  _679
REMARK  259  A    between atoms: _682  and  _684
REMARK  260  A    between atoms: _684  and  _685
REMARK  261  A    between atoms: _684  and  _687
REMARK  262  A    between atoms: _687  and  _688
REMARK  263  A    between atoms: _688  and  _689
REMARK  264  A    between atoms: _689  and  _690
REMARK  265  A    between atoms: _690  and  _691
REMARK  266  A    between atoms: _695  and  _697
REMARK  267  A    between atoms: _697  and  _698
REMARK  268  A    between atoms: _700  and  _702
REMARK  269  A    between atoms: _702  and  _703
REMARK  270  A    between atoms: _702  and  _705
REMARK  271  A    between atoms: _705  and  _706
REMARK  272  A    between atoms: _711  and  _713
REMARK  273  A    between atoms: _713  and  _714
REMARK  274  A    between atoms: _713  and  _716
REMARK  275  A    between atoms: _716  and  _717
REMARK  276  A    between atoms: _717  and  _718
REMARK  277  A    between atoms: _718  and  _719
REMARK  278  A    between atoms: _728  and  _730
REMARK  279  A    between atoms: _730  and  _731
REMARK  280  A    between atoms: _730  and  _733
REMARK  281  A    between atoms: _733  and  _734
REMARK  282  A    between atoms: _737  and  _739
REMARK  283  A    between atoms: _739  and  _740
REMARK  284  A    between atoms: _739  and  _742
REMARK  285  A    between atoms: _745  and  _747
REMARK  286  A    between atoms: _747  and  _748
REMARK  287  A    between atoms: _747  and  _750
REMARK  288  A    between atoms: _750  and  _751
REMARK  289  A    between atoms: _751  and  _752
REMARK  290  A    between atoms: _758  and  _759
REMARK  291  A    between atoms: _764  and  _766
REMARK  292  A    between atoms: _766  and  _767
REMARK  293  A    between atoms: _766  and  _769
REMARK  294  A    between atoms: _769  and  _770
REMARK  295  A    between atoms: _773  and  _775
REMARK  296  A    between atoms: _775  and  _776
REMARK  297  A    between atoms: _775  and  _778
REMARK  298  A    between atoms: _778  and  _779
REMARK  299  A    between atoms: _782  and  _784
REMARK  300  A    between atoms: _784  and  _785
REMARK  301  A    between atoms: _784  and  _787
REMARK  302  A    between atoms: _787  and  _788
REMARK  303  A    between atoms: _790  and  _792
REMARK  304  A    between atoms: _792  and  _793
REMARK  305  A    between atoms: _792  and  _795
REMARK  306  A    between atoms: _795  and  _796
REMARK  307  A    between atoms: _796  and  _797
REMARK  308  A    between atoms: _797  and  _798
REMARK  309  A    between atoms: _807  and  _809
REMARK  310  A    between atoms: _809  and  _810
REMARK                            x       y       z     vdW  Elec       q    Type
REMARK                         _______ _______ _______ _____ _____    ______ ____
ROOT
ATOM      1  CG  LYS A   1     -19.079 -34.651 -32.308  0.00  0.00    -0.000 C 
ENDROOT
BRANCH   1   2
ATOM      2  CB  LYS A   1     -18.225 -34.521 -33.513  0.00  0.00    +0.025 C 
BRANCH   2   3
ATOM      3  CA  LYS A   1     -18.372 -33.203 -34.254  0.00  0.00    +0.133 C 
BRANCH   3   4
ATOM      4  N   LYS A   1     -19.736 -32.975 -34.709  0.00  0.00    -0.239 NA
ATOM      5  H   LYS A   1     -20.166 -33.621 -35.401  0.00  0.00    +0.142 HD
ENDBRANCH   3   4
BRANCH   3   6
ATOM      6  C   LYS A   1     -17.462 -33.327 -35.440  0.00  0.00    +0.224 C 
ATOM      7  O   LYS A   1     -17.892 -33.689 -36.532  0.00  0.00    -0.287 OA
ENDBRANCH   3   6
ENDBRANCH   2   3
ENDBRANCH   1   2
BRANCH   1   8
ATOM      8  CD  LYS A   1     -18.812 -35.937 -31.558  0.00  0.00    -0.024 C 
BRANCH   8   9
ATOM      9  CE  LYS A   1     -19.693 -36.009 -30.325  0.00  0.00    -0.086 C 
BRANCH   9  10
ATOM     10  NZ  LYS A   1     -19.221 -35.144 -29.193  0.00  0.00    +0.380 N 
ATOM     11  HZ1 LYS A   1     -19.871 -35.245 -28.387  0.00  0.00    -0.089 HD
ATOM     12  HZ2 LYS A   1     -18.265 -35.439 -28.908  0.00  0.00    -0.089 HD
ATOM     13  HZ3 LYS A   1     -19.201 -34.151 -29.502  0.00  0.00    -0.089 HD
ENDBRANCH   9  10
ENDBRANCH   8   9
ENDBRANCH   1   8
TORSDOF 7
REMARK  Name = ../refined-set-2016/3rt4/3rt4_pocket.pdb
REMARK  310 active torsions:
REMARK  status: ('A' for Active; 'I' for Inactive)
REMARK    1  A    between atoms: _1  and  _3
REMARK    2  A    between atoms: _3  and  _4
REMARK    3  A    between atoms: _3  and  _6
REMARK    4  A    between atoms: _6  and  _7
REMARK    5  A    between atoms: _7  and  _8
REMARK    6  A    between atoms: _8  and  _9
REMARK    7  A    between atoms: _18  and  _20
REMARK    8  A    between atoms: _20  and  _21
REMARK    9  A    between atoms: _20  and  _23
REMARK   10  A    between atoms: _26  and  _28
REMARK   11  A    between atoms: _28  and  _29
REMARK   12  A    between atoms: _28  and  _31
REMARK   13  A    between atoms: _31  and  _32
REMARK   14  A    between atoms: _32  and  _33
REMARK   15  A    between atoms: _33  and  _34
REMARK   16  A    between atoms: _43  and  _45
REMARK   17  A    between atoms: _45  and  _46
REMARK   18  A    between atoms: _45  and  _48
REMARK   19  A    between atoms: _48  and  _49
REMARK   20  A    between atoms: _51  and  _53
REMARK   21  A    between atoms: _53  and  _54
REMARK   22  A    between atoms: _53  and  _56
REMARK   23  A    between atoms: _56  and  _57
REMARK   24  A    between atoms: _62  and  _64
REMARK   25  A    between atoms: _64  and  _65
REMARK   26  A    between atoms: _64  and  _67
REMARK   27  A    between atoms: _67  and  _68
REMARK   28  A    between atoms: _73  and  _74
REMARK   29  A    between atoms: _76  and  _78
REMARK   30  A    between atoms: _78  and  _79
REMARK   31  A    between atoms: _78  and  _81
REMARK   32  A    between atoms: _81  and  _82
REMARK   33  A    between atoms: _82  and  _83
REMARK   34  A    between atoms: _86  and  _88
REMARK   35  A    between atoms: _88  and  _89
REMARK   36  A    between atoms: _88  and  _91
REMARK   37  A    between atoms: _91  and  _92
REMARK   38  A    between atoms: _92  and  _93
REMARK   39  A    between atoms: _93  and  _94
REMARK   40  A    between atoms: _94  and  _95
REMARK   41  A    between atoms: _99  and  _101
REMARK   42  A    between atoms: _101  and  _102
REMARK   43  A    between atoms: _101  and  _104
REMARK   44  A    between atoms: _104  and  _105
REMARK   45  A    between atoms: _110  and  _111
REMARK   46  A    between atoms: _113  and  _115
REMARK   47  A    between atoms: _115  and  _116
REMARK   48  A    between atoms: _115  and  _118
REMARK   49  A    between atoms: _118  and  _119
REMARK   50  A    between atoms: _119  and  _120
REMARK   51  A    between atoms: _120  and  _121
REMARK   52  A    between atoms: _130  and  _132
REMARK   53  A    between atoms: _132  and  _133
REMARK   54  A    between atoms: _136  and  _138
REMARK   55  A    between atoms: _138  and  _139
REMARK   56  A    between atoms: _138  and  _141
REMARK   57  A    between atoms: _141  and  _142
REMARK   58  A    between atoms: _142  and  _258
REMARK   59  A    between atoms: _143  and  _145
REMARK   60  A    between atoms: _145  and  _146
REMARK   61  A    between atoms: _145  and  _148
REMARK   62  A    between atoms: _148  and  _149
REMARK   63  A    between atoms: _149  and  _150
REMARK   64  A    between atoms: _153  and  _155
REMARK   65  A    between atoms: _155  and  _156
REMARK   66  A    between atoms: _155  and  _158
REMARK   67  A    between atoms: _158  and  _159
REMARK   68  A    between atoms: _161  and  _163
REMARK   69  A    between atoms: _163  and  _164
REMARK   70  A    between atoms: _163  and  _166
REMARK   71  A    between atoms: _166  and  _167
REMARK   72  A    between atoms: _172  and  _173
REMARK   73  A    between atoms: _175  and  _177
REMARK   74  A    between atoms: _177  and  _178
REMARK   75  A    between atoms: _177  and  _180
REMARK   76  A    between atoms: _180  and  _181
REMARK   77  A    between atoms: _186  and  _188
REMARK   78  A    between atoms: _188  and  _189
REMARK   79  A    between atoms: _188  and  _191
REMARK   80  A    between atoms: _194  and  _196
REMARK   81  A    between atoms: _196  and  _197
REMARK   82  A    between atoms: _196  and  _199
REMARK   83  A    between atoms: _199  and  _200
REMARK   84  A    between atoms: _200  and  _201
REMARK   85  A    between atoms: _201  and  _202
REMARK   86  A    between atoms: _211  and  _213
REMARK   87  A    between atoms: _213  and  _214
REMARK   88  A    between atoms: _213  and  _216
REMARK   89  A    between atoms: _216  and  _217
REMARK   90  A    between atoms: _222  and  _224
REMARK   91  A    between atoms: _224  and  _225
REMARK   92  A    between atoms: _224  and  _227
REMARK   93  A    between atoms: _227  and  _228
REMARK   94  A    between atoms: _231  and  _233
REMARK   95  A    between atoms: _233  and  _234
REMARK   96  A    between atoms: _236  and  _238
REMARK   97  A    between atoms: _238  and  _239
REMARK   98  A    between atoms: _238  and  _241
REMARK   99  A    between atoms: _241  and  _242
REMARK  100  A    between atoms: _252  and  _254
REMARK  101  A    between atoms: _254  and  _255
REMARK  102  A    between atoms: _254  and  _257
REMARK  103  A    between atoms: _257  and  _258
REMARK  104  A    between atoms: _259  and  _261
REMARK  105  A    between atoms: _261  and  _262
REMARK  106  A    between atoms: _261  and  _264
REMARK  107  A    between atoms: _264  and  _265
REMARK  108  A    between atoms: _268  and  _270
REMARK  109  A    between atoms: _270  and  _271
REMARK  110  A    between atoms: _273  and  _275
REMARK  111  A    between atoms: _275  and  _276
REMARK  112  A    between atoms: _275  and  _278
REMARK  113  A    between atoms: _278  and  _279
REMARK  114  A    between atoms: _284  and  _285
REMARK  115  A    between atoms: _287  and  _289
REMARK  116  A    between atoms: _289  and  _290
REMARK  117  A    between atoms: _289  and  _292
REMARK  118  A    between atoms: _292  and  _293
REMARK  119  A    between atoms: _293  and  _294
REMARK  120  A    between atoms: _294  and  _295
REMARK  121  A    between atoms: _304  and  _306
REMARK  122  A    between atoms: _306  and  _307
REMARK  123  A    between atoms: _306  and  _309
REMARK  124  A    between atoms: _309  and  _310
REMARK  125  A    between atoms: _310  and  _311
REMARK  126  A    between atoms: _311  and  _312
REMARK  127  A    between atoms: _312  and  _313
REMARK  128  A    between atoms: _317  and  _319
REMARK  129  A    between atoms: _319  and  _320
REMARK  130  A    between atoms: _322  and  _324
REMARK  131  A    between atoms: _324  and  _325
REMARK  132  A    between atoms: _328  and  _330
REMARK  133  A    between atoms: _330  and  _331
REMARK  134  A    between atoms: _330  and  _333
REMARK  135  A    between atoms: _333  and  _334
REMARK  136  A    between atoms: _339  and  _341
REMARK  137  A    between atoms: _341  and  _342
REMARK  138  A    between atoms: _345  and  _347
REMARK  139  A    between atoms: _347  and  _348
REMARK  140  A    between atoms: _351  and  _352
REMARK  141  A    between atoms: _357  and  _359
REMARK  142  A    between atoms: _359  and  _360
REMARK  143  A    between atoms: _359  and  _362
REMARK  144  A    between atoms: _362  and  _363
REMARK  145  A    between atoms: _366  and  _368
REMARK  146  A    between atoms: _368  and  _369
REMARK  147  A    between atoms: _368  and  _371
REMARK  148  A    between atoms: _371  and  _372
REMARK  149  A    between atoms: _382  and  _384
REMARK  150  A    between atoms: _384  and  _385
REMARK  151  A    between atoms: _384  and  _387
REMARK  152  A    between atoms: _387  and  _388
REMARK  153  A    between atoms: _394  and  _395
REMARK  154  A    between atoms: _400  and  _402
REMARK  155  A    between atoms: _402  and  _403
REMARK  156  A    between atoms: _402  and  _405
REMARK  157  A    between atoms: _405  and  _406
REMARK  158  A    between atoms: _409  and  _411
REMARK  159  A    between atoms: _411  and  _412
REMARK  160  A    between atoms: _411  and  _414
REMARK  161  A    between atoms: _414  and  _415
REMARK  162  A    between atoms: _417  and  _419
REMARK  163  A    between atoms: _419  and  _420
REMARK  164  A    between atoms: _419  and  _422
REMARK  165  A    between atoms: _422  and  _423
REMARK  166  A    between atoms: _428  and  _430
REMARK  167  A    between atoms: _430  and  _431
REMARK  168  A    between atoms: _430  and  _433
REMARK  169  A    between atoms: _436  and  _438
REMARK  170  A    between atoms: _438  and  _439
REMARK  171  A    between atoms: _438  and  _441
REMARK  172  A    between atoms: _441  and  _442
REMARK  173  A    between atoms: _442  and  _443
REMARK  174  A    between atoms: _449  and  _450
REMARK  175  A    between atoms: _455  and  _457
REMARK  176  A    between atoms: _457  and  _458
REMARK  177  A    between atoms: _457  and  _460
REMARK  178  A    between atoms: _460  and  _461
REMARK  179  A    between atoms: _464  and  _466
REMARK  180  A    between atoms: _466  and  _467
REMARK  181  A    between atoms: _466  and  _469
REMARK  182  A    between atoms: _469  and  _470
REMARK  183  A    between atoms: _473  and  _475
REMARK  184  A    between atoms: _475  and  _476
REMARK  185  A    between atoms: _475  and  _478
REMARK  186  A    between atoms: _478  and  _479
REMARK  187  A    between atoms: _481  and  _483
REMARK  188  A    between atoms: _483  and  _484
REMARK  189  A    between atoms: _483  and  _486
REMARK  190  A    between atoms: _486  and  _487
REMARK  191  A    between atoms: _492  and  _493
REMARK  192  A    between atoms: _495  and  _497
REMARK  193  A    between atoms: _497  and  _498
REMARK  194  A    between atoms: _497  and  _500
REMARK  195  A    between atoms: _500  and  _501
REMARK  196  A    between atoms: _506  and  _508
REMARK  197  A    between atoms: _508  and  _509
REMARK  198  A    between atoms: _508  and  _511
REMARK  199  A    between atoms: _511  and  _512
REMARK  200  A    between atoms: _515  and  _517
REMARK  201  A    between atoms: _517  and  _518
REMARK  202  A    between atoms: _517  and  _520
REMARK  203  A    between atoms: _520  and  _521
REMARK  204  A    between atoms: _531  and  _533
REMARK  205  A    between atoms: _533  and  _534
REMARK  206  A    between atoms: _536  and  _538
REMARK  207  A    between atoms: _538  and  _539
REMARK  208  A    between atoms: _538  and  _541
REMARK  209  A    between atoms: _541  and  _542
REMARK  210  A    between atoms: _547  and  _548
REMARK  211  A    between atoms: _550  and  _552
REMARK  212  A    between atoms: _552  and  _553
REMARK  213  A    between atoms: _552  and  _555
REMARK  214  A    between atoms: _555  and  _556
REMARK  215  A    between atoms: _556  and  _557
REMARK  216  A    between atoms: _557  and  _558
REMARK  217  A    between atoms: _567  and  _569
REMARK  218  A    between atoms: _569  and  _570
REMARK  219  A    between atoms: _569  and  _572
REMARK  220  A    between atoms: _572  and  _573
REMARK  221  A    between atoms: _573  and  _574
REMARK  222  A    between atoms: _574  and  _575
REMARK  223  A    between atoms: _575  and  _576
REMARK  224  A    between atoms: _580  and  _582
REMARK  225  A    between atoms: _582  and  _583
REMARK  226  A    between atoms: _585  and  _587
REMARK  227  A    between atoms: _587  and  _588
REMARK  228  A    between atoms: _591  and  _593
REMARK  229  A    between atoms: _593  and  _594
REMARK  230  A    between atoms: _593  and  _596
REMARK  231  A    between atoms: _596  and  _597
REMARK  232  A    between atoms: _602  and  _604
REMARK  233  A    between atoms: _604  and  _605
REMARK  234  A    between atoms: _608  and  _610
REMARK  235  A    between atoms: _610  and  _611
REMARK  236  A    between atoms: _614  and  _615
REMARK  237  A    between atoms: _620  and  _622
REMARK  238  A    between atoms: _622  and  _623
REMARK  239  A    between atoms: _622  and  _625
REMARK  240  A    between atoms: _625  and  _626
REMARK  241  A    between atoms: _629  and  _631
REMARK  242  A    between atoms: _631  and  _632
REMARK  243  A    between atoms: _631  and  _634
REMARK  244  A    between atoms: _634  and  _635
REMARK  245  A    between atoms: _645  and  _647
REMARK  246  A    between atoms: _647  and  _648
REMARK  247  A    between atoms: _647  and  _650
REMARK  248  A    between atoms: _650  and  _651
REMARK  249  A    between atoms: _657  and  _658
REMARK  250  A    between atoms: _663  and  _665
REMARK  251  A    between atoms: _665  and  _666
REMARK  252  A    between atoms: _665  and  _668
REMARK  253  A    between atoms: _668  and  _669
REMARK  254  A    between atoms: _672  and  _674
REMARK  255  A    between atoms: _674  and  _675
REMARK  256  A    between atoms: _674  and  _677
REMARK  257  A    between atoms: _677  and  _678
REMARK  258  A    between atoms: _678  and  _679
REMARK  259  A    between atoms: _682  and  _684
REMARK  260  A    between atoms: _684  and  _685
REMARK  261  A    between atoms: _684  and  _687
REMARK  262  A    between atoms: _687  and  _688
REMARK  263  A    between atoms: _688  and  _689
REMARK  264  A    between atoms: _689  and  _690
REMARK  265  A    between atoms: _690  and  _691
REMARK  266  A    between atoms: _695  and  _697
REMARK  267  A    between atoms: _697  and  _698
REMARK  268  A    between atoms: _700  and  _702
REMARK  269  A    between atoms: _702  and  _703
REMARK  270  A    between atoms: _702  and  _705
REMARK  271  A    between atoms: _705  and  _706
REMARK  272  A    between atoms: _711  and  _713
REMARK  273  A    between atoms: _713  and  _714
REMARK  274  A    between atoms: _713  and  _716
REMARK  275  A    between atoms: _716  and  _717
REMARK  276  A    between atoms: _717  and  _718
REMARK  277  A    between atoms: _718  and  _719
REMARK  278  A    between atoms: _728  and  _730
REMARK  279  A    between atoms: _730  and  _731
REMARK  280  A    between atoms: _730  and  _733
REMARK  281  A    between atoms: _733  and  _734
REMARK  282  A    between atoms: _737  and  _739
REMARK  283  A    between atoms: _739  and  _740
REMARK  284  A    between atoms: _739  and  _742
REMARK  285  A    between atoms: _745  and  _747
REMARK  286  A    between atoms: _747  and  _748
REMARK  287  A    between atoms: _747  and  _750
REMARK  288  A    between atoms: _750  and  _751
REMARK  289  A    between atoms: _751  and  _752
REMARK  290  A    between atoms: _758  and  _759
REMARK  291  A    between atoms: _764  and  _766
REMARK  292  A    between atoms: _766  and  _767
REMARK  293  A    between atoms: _766  and  _769
REMARK  294  A    between atoms: _769  and  _770
REMARK  295  A    between atoms: _773  and  _775
REMARK  296  A    between atoms: _775  and  _776
REMARK  297  A    between atoms: _775  and  _778
REMARK  298  A    between atoms: _778  and  _779
REMARK  299  A    between atoms: _782  and  _784
REMARK  300  A    between atoms: _784  and  _785
REMARK  301  A    between atoms: _784  and  _787
REMARK  302  A    between atoms: _787  and  _788
REMARK  303  A    between atoms: _790  and  _792
REMARK  304  A    between atoms: _792  and  _793
REMARK  305  A    between atoms: _792  and  _795
REMARK  306  A    between atoms: _795  and  _796
REMARK  307  A    between atoms: _796  and  _797
REMARK  308  A    between atoms: _797  and  _798
REMARK  309  A    between atoms: _807  and  _809
REMARK  310  A    between atoms: _809  and  _810
REMARK                            x       y       z     vdW  Elec       q    Type
REMARK                         _______ _______ _______ _____ _____    ______ ____
ROOT
ATOM      1  CA  ARG A   2     -19.888 -29.875 -29.281  0.00  0.00    +0.149 C 
ENDROOT
BRANCH   1   4
ATOM      2  C   TYR A   1     -20.493 -28.236 -31.057  0.00  0.00    +0.239 C 
ATOM      3  O   TYR A   1     -20.615 -27.278 -30.290  0.00  0.00    -0.274 OA
ATOM      4  N   ARG A   2     -20.216 -29.479 -30.659  0.00  0.00    -0.297 N 
ATOM      5  H   ARG A   2     -20.233 -30.228 -31.381  0.00  0.00    +0.150 HD
BRANCH   2   6
ATOM      6  CA  TYR A   1     -20.695 -28.051 -32.557  0.00  0.00    +0.149 C 
BRANCH   6   7
ATOM      7  N   TYR A   1     -21.941 -27.396 -32.883  0.00  0.00    -0.238 NA
ATOM      8  H   TYR A   1     -21.930 -26.429 -33.264  0.00  0.00    +0.142 HD
ENDBRANCH   6   7
BRANCH   6   9
ATOM      9  CB  TYR A   1     -19.497 -27.258 -33.068  0.00  0.00    +0.053 C 
BRANCH   9  10
ATOM     10  CG  TYR A   1     -18.204 -27.986 -32.795  0.00  0.00    -0.020 A 
ATOM     11  CD2 TYR A   1     -17.433 -27.687 -31.669  0.00  0.00    -0.001 A 
ATOM     12  CE2 TYR A   1     -16.263 -28.400 -31.382  0.00  0.00    +0.036 A 
ATOM     13  CZ  TYR A   1     -15.855 -29.423 -32.235  0.00  0.00    +0.134 A 
ATOM     14  CE1 TYR A   1     -16.613 -29.734 -33.361  0.00  0.00    +0.036 A 
ATOM     15  CD1 TYR A   1     -17.777 -29.016 -33.633  0.00  0.00    -0.001 A 
BRANCH  13  16
ATOM     16  OH  TYR A   1     -14.686 -30.105 -31.986  0.00  0.00    -0.506 OA
ATOM     17  HH  TYR A   1     -13.927 -29.470 -31.994  0.00  0.00    +0.292 HD
ENDBRANCH  13  16
ENDBRANCH   9  10
ENDBRANCH   6   9
ENDBRANCH   2   6
ENDBRANCH   1   4
BRANCH   1  18
ATOM     18  C   ARG A   2     -18.774 -30.887 -29.530  0.00  0.00    +0.241 C 
ATOM     19  N   ALA A   3     -17.539 -30.558 -29.165  0.00  0.00    -0.298 N 
ATOM     20  H   ALA A   3     -17.360 -29.629 -28.733  0.00  0.00    +0.150 HD
ATOM     21  O   ARG A   2     -19.033 -31.963 -30.065  0.00  0.00    -0.273 OA
BRANCH  19  22
ATOM     22  CA  ALA A   3     -16.435 -31.486 -29.365  0.00  0.00    +0.137 C 
ATOM     23  CB  ALA A   3     -15.194 -30.974 -28.649  0.00  0.00    +0.030 C 
BRANCH  22  24
ATOM     24  C   ALA A   3     -16.827 -32.864 -28.824  0.00  0.00    +0.227 C 
ATOM     25  O   ALA A   3     -17.553 -32.970 -27.834  0.00  0.00    -0.286 OA
ENDBRANCH  22  24
ENDBRANCH  19  22
ENDBRANCH   1  18
BRANCH   1  26
ATOM     26  CB  ARG A   2     -20.985 -30.655 -28.547  0.00  0.00    +0.033 C 
BRANCH  26  27
ATOM     27  CG  ARG A   2     -22.228 -29.893 -28.167  0.00  0.00    +0.045 C 
BRANCH  27  28
ATOM     28  CD  ARG A   2     -22.053 -28.846 -27.063  0.00  0.00    +0.174 C 
BRANCH  28  29
ATOM     29  NE  ARG A   2     -23.322 -28.135 -26.878  0.00  0.00    -0.265 N 
ATOM     30  HE  ARG A   2     -23.670 -28.006 -25.907  0.00  0.00    +0.259 HD
ATOM     31  CZ  ARG A   2     -24.059 -27.643 -27.876  0.00  0.00    +0.342 C 
ATOM     32  NH2 ARG A   2     -25.335 -27.335 -27.681  0.00  0.00    -0.292 N 
ATOM     33 HH21 ARG A   2     -25.767 -27.477 -26.746  0.00  0.00    +0.255 HD
ATOM     34 HH22 ARG A   2     -25.903 -26.952 -28.464  0.00  0.00    +0.255 HD
ATOM     35  NH1 ARG A   2     -23.534 -27.497 -29.084  0.00  0.00    -0.292 N 
ATOM     36 HH11 ARG A   2     -22.544 -27.766 -29.257  0.00  0.00    +0.255 HD
ATOM     37 HH12 ARG A   2     -24.112 -27.113 -29.859  0.00  0.00    +0.255 HD
ENDBRANCH  28  29
ENDBRANCH  27  28
ENDBRANCH  26  27
ENDBRANCH   1  26
TORSDOF 13
REMARK  Name = ../refined-set-2016/3rt4/3rt4_pocket.pdb
REMARK  310 active torsions:
REMARK  status: ('A' for Active; 'I' for Inactive)
REMARK    1  A    between atoms: _1  and  _3
REMARK    2  A    between atoms: _3  and  _4
REMARK    3  A    between atoms: _3  and  _6
REMARK    4  A    between atoms: _6  and  _7
REMARK    5  A    between atoms: _7  and  _8
REMARK    6  A    between atoms: _8  and  _9
REMARK    7  A    between atoms: _18  and  _20
REMARK    8  A    between atoms: _20  and  _21
REMARK    9  A    between atoms: _20  and  _23
REMARK   10  A    between atoms: _26  and  _28
REMARK   11  A    between atoms: _28  and  _29
REMARK   12  A    between atoms: _28  and  _31
REMARK   13  A    between atoms: _31  and  _32
REMARK   14  A    between atoms: _32  and  _33
REMARK   15  A    between atoms: _33  and  _34
REMARK   16  A    between atoms: _43  and  _45
REMARK   17  A    between atoms: _45  and  _46
REMARK   18  A    between atoms: _45  and  _48
REMARK   19  A    between atoms: _48  and  _49
REMARK   20  A    between atoms: _51  and  _53
REMARK   21  A    between atoms: _53  and  _54
REMARK   22  A    between atoms: _53  and  _56
REMARK   23  A    between atoms: _56  and  _57
REMARK   24  A    between atoms: _62  and  _64
REMARK   25  A    between atoms: _64  and  _65
REMARK   26  A    between atoms: _64  and  _67
REMARK   27  A    between atoms: _67  and  _68
REMARK   28  A    between atoms: _73  and  _74
REMARK   29  A    between atoms: _76  and  _78
REMARK   30  A    between atoms: _78  and  _79
REMARK   31  A    between atoms: _78  and  _81
REMARK   32  A    between atoms: _81  and  _82
REMARK   33  A    between atoms: _82  and  _83
REMARK   34  A    between atoms: _86  and  _88
REMARK   35  A    between atoms: _88  and  _89
REMARK   36  A    between atoms: _88  and  _91
REMARK   37  A    between atoms: _91  and  _92
REMARK   38  A    between atoms: _92  and  _93
REMARK   39  A    between atoms: _93  and  _94
REMARK   40  A    between atoms: _94  and  _95
REMARK   41  A    between atoms: _99  and  _101
REMARK   42  A    between atoms: _101  and  _102
REMARK   43  A    between atoms: _101  and  _104
REMARK   44  A    between atoms: _104  and  _105
REMARK   45  A    between atoms: _110  and  _111
REMARK   46  A    between atoms: _113  and  _115
REMARK   47  A    between atoms: _115  and  _116
REMARK   48  A    between atoms: _115  and  _118
REMARK   49  A    between atoms: _118  and  _119
REMARK   50  A    between atoms: _119  and  _120
REMARK   51  A    between atoms: _120  and  _121
REMARK   52  A    between atoms: _130  and  _132
REMARK   53  A    between atoms: _132  and  _133
REMARK   54  A    between atoms: _136  and  _138
REMARK   55  A    between atoms: _138  and  _139
REMARK   56  A    between atoms: _138  and  _141
REMARK   57  A    between atoms: _141  and  _142
REMARK   58  A    between atoms: _142  and  _258
REMARK   59  A    between atoms: _143  and  _145
REMARK   60  A    between atoms: _145  and  _146
REMARK   61  A    between atoms: _145  and  _148
REMARK   62  A    between atoms: _148  and  _149
REMARK   63  A    between atoms: _149  and  _150
REMARK   64  A    between atoms: _153  and  _155
REMARK   65  A    between atoms: _155  and  _156
REMARK   66  A    between atoms: _155  and  _158
REMARK   67  A    between atoms: _158  and  _159
REMARK   68  A    between atoms: _161  and  _163
REMARK   69  A    between atoms: _163  and  _164
REMARK   70  A    between atoms: _163  and  _166
REMARK   71  A    between atoms: _166  and  _167
REMARK   72  A    between atoms: _172  and  _173
REMARK   73  A    between atoms: _175  and  _177
REMARK   74  A    between atoms: _177  and  _178
REMARK   75  A    between atoms: _177  and  _180
REMARK   76  A    between atoms: _180  and  _181
REMARK   77  A    between atoms: _186  and  _188
REMARK   78  A    between atoms: _188  and  _189
REMARK   79  A    between atoms: _188  and  _191
REMARK   80  A    between atoms: _194  and  _196
REMARK   81  A    between atoms: _196  and  _197
REMARK   82  A    between atoms: _196  and  _199
REMARK   83  A    between atoms: _199  and  _200
REMARK   84  A    between atoms: _200  and  _201
REMARK   85  A    between atoms: _201  and  _202
REMARK   86  A    between atoms: _211  and  _213
REMARK   87  A    between atoms: _213  and  _214
REMARK   88  A    between atoms: _213  and  _216
REMARK   89  A    between atoms: _216  and  _217
REMARK   90  A    between atoms: _222  and  _224
REMARK   91  A    between atoms: _224  and  _225
REMARK   92  A    between atoms: _224  and  _227
REMARK   93  A    between atoms: _227  and  _228
REMARK   94  A    between atoms: _231  and  _233
REMARK   95  A    between atoms: _233  and  _234
REMARK   96  A    between atoms: _236  and  _238
REMARK   97  A    between atoms: _238  and  _239
REMARK   98  A    between atoms: _238  and  _241
REMARK   99  A    between atoms: _241  and  _242
REMARK  100  A    between atoms: _252  and  _254
REMARK  101  A    between atoms: _254  and  _255
REMARK  102  A    between atoms: _254  and  _257
REMARK  103  A    between atoms: _257  and  _258
REMARK  104  A    between atoms: _259  and  _261
REMARK  105  A    between atoms: _261  and  _262
REMARK  106  A    between atoms: _261  and  _264
REMARK  107  A    between atoms: _264  and  _265
REMARK  108  A    between atoms: _268  and  _270
REMARK  109  A    between atoms: _270  and  _271
REMARK  110  A    between atoms: _273  and  _275
REMARK  111  A    between atoms: _275  and  _276
REMARK  112  A    between atoms: _275  and  _278
REMARK  113  A    between atoms: _278  and  _279
REMARK  114  A    between atoms: _284  and  _285
REMARK  115  A    between atoms: _287  and  _289
REMARK  116  A    between atoms: _289  and  _290
REMARK  117  A    between atoms: _289  and  _292
REMARK  118  A    between atoms: _292  and  _293
REMARK  119  A    between atoms: _293  and  _294
REMARK  120  A    between atoms: _294  and  _295
REMARK  121  A    between atoms: _304  and  _306
REMARK  122  A    between atoms: _306  and  _307
REMARK  123  A    between atoms: _306  and  _309
REMARK  124  A    between atoms: _309  and  _310
REMARK  125  A    between atoms: _310  and  _311
REMARK  126  A    between atoms: _311  and  _312
REMARK  127  A    between atoms: _312  and  _313
REMARK  128  A    between atoms: _317  and  _319
REMARK  129  A    between atoms: _319  and  _320
REMARK  130  A    between atoms: _322  and  _324
REMARK  131  A    between atoms: _324  and  _325
REMARK  132  A    between atoms: _328  and  _330
REMARK  133  A    between atoms: _330  and  _331
REMARK  134  A    between atoms: _330  and  _333
REMARK  135  A    between atoms: _333  and  _334
REMARK  136  A    between atoms: _339  and  _341
REMARK  137  A    between atoms: _341  and  _342
REMARK  138  A    between atoms: _345  and  _347
REMARK  139  A    between atoms: _347  and  _348
REMARK  140  A    between atoms: _351  and  _352
REMARK  141  A    between atoms: _357  and  _359
REMARK  142  A    between atoms: _359  and  _360
REMARK  143  A    between atoms: _359  and  _362
REMARK  144  A    between atoms: _362  and  _363
REMARK  145  A    between atoms: _366  and  _368
REMARK  146  A    between atoms: _368  and  _369
REMARK  147  A    between atoms: _368  and  _371
REMARK  148  A    between atoms: _371  and  _372
REMARK  149  A    between atoms: _382  and  _384
REMARK  150  A    between atoms: _384  and  _385
REMARK  151  A    between atoms: _384  and  _387
REMARK  152  A    between atoms: _387  and  _388
REMARK  153  A    between atoms: _394  and  _395
REMARK  154  A    between atoms: _400  and  _402
REMARK  155  A    between atoms: _402  and  _403
REMARK  156  A    between atoms: _402  and  _405
REMARK  157  A    between atoms: _405  and  _406
REMARK  158  A    between atoms: _409  and  _411
REMARK  159  A    between atoms: _411  and  _412
REMARK  160  A    between atoms: _411  and  _414
REMARK  161  A    between atoms: _414  and  _415
REMARK  162  A    between atoms: _417  and  _419
REMARK  163  A    between atoms: _419  and  _420
REMARK  164  A    between atoms: _419  and  _422
REMARK  165  A    between atoms: _422  and  _423
REMARK  166  A    between atoms: _428  and  _430
REMARK  167  A    between atoms: _430  and  _431
REMARK  168  A    between atoms: _430  and  _433
REMARK  169  A    between atoms: _436  and  _438
REMARK  170  A    between atoms: _438  and  _439
REMARK  171  A    between atoms: _438  and  _441
REMARK  172  A    between atoms: _441  and  _442
REMARK  173  A    between atoms: _442  and  _443
REMARK  174  A    between atoms: _449  and  _450
REMARK  175  A    between atoms: _455  and  _457
REMARK  176  A    between atoms: _457  and  _458
REMARK  177  A    between atoms: _457  and  _460
REMARK  178  A    between atoms: _460  and  _461
REMARK  179  A    between atoms: _464  and  _466
REMARK  180  A    between atoms: _466  and  _467
REMARK  181  A    between atoms: _466  and  _469
REMARK  182  A    between atoms: _469  and  _470
REMARK  183  A    between atoms: _473  and  _475
REMARK  184  A    between atoms: _475  and  _476
REMARK  185  A    between atoms: _475  and  _478
REMARK  186  A    between atoms: _478  and  _479
REMARK  187  A    between atoms: _481  and  _483
REMARK  188  A    between atoms: _483  and  _484
REMARK  189  A    between atoms: _483  and  _486
REMARK  190  A    between atoms: _486  and  _487
REMARK  191  A    between atoms: _492  and  _493
REMARK  192  A    between atoms: _495  and  _497
REMARK  193  A    between atoms: _497  and  _498
REMARK  194  A    between atoms: _497  and  _500
REMARK  195  A    between atoms: _500  and  _501
REMARK  196  A    between atoms: _506  and  _508
REMARK  197  A    between atoms: _508  and  _509
REMARK  198  A    between atoms: _508  and  _511
REMARK  199  A    between atoms: _511  and  _512
REMARK  200  A    between atoms: _515  and  _517
REMARK  201  A    between atoms: _517  and  _518
REMARK  202  A    between atoms: _517  and  _520
REMARK  203  A    between atoms: _520  and  _521
REMARK  204  A    between atoms: _531  and  _533
REMARK  205  A    between atoms: _533  and  _534
REMARK  206  A    between atoms: _536  and  _538
REMARK  207  A    between atoms: _538  and  _539
REMARK  208  A    between atoms: _538  and  _541
REMARK  209  A    between atoms: _541  and  _542
REMARK  210  A    between atoms: _547  and  _548
REMARK  211  A    between atoms: _550  and  _552
REMARK  212  A    between atoms: _552  and  _553
REMARK  213  A    between atoms: _552  and  _555
REMARK  214  A    between atoms: _555  and  _556
REMARK  215  A    between atoms: _556  and  _557
REMARK  216  A    between atoms: _557  and  _558
REMARK  217  A    between atoms: _567  and  _569
REMARK  218  A    between atoms: _569  and  _570
REMARK  219  A    between atoms: _569  and  _572
REMARK  220  A    between atoms: _572  and  _573
REMARK  221  A    between atoms: _573  and  _574
REMARK  222  A    between atoms: _574  and  _575
REMARK  223  A    between atoms: _575  and  _576
REMARK  224  A    between atoms: _580  and  _582
REMARK  225  A    between atoms: _582  and  _583
REMARK  226  A    between atoms: _585  and  _587
REMARK  227  A    between atoms: _587  and  _588
REMARK  228  A    between atoms: _591  and  _593
REMARK  229  A    between atoms: _593  and  _594
REMARK  230  A    between atoms: _593  and  _596
REMARK  231  A    between atoms: _596  and  _597
REMARK  232  A    between atoms: _602  and  _604
REMARK  233  A    between atoms: _604  and  _605
REMARK  234  A    between atoms: _608  and  _610
REMARK  235  A    between atoms: _610  and  _611
REMARK  236  A    between atoms: _614  and  _615
REMARK  237  A    between atoms: _620  and  _622
REMARK  238  A    between atoms: _622  and  _623
REMARK  239  A    between atoms: _622  and  _625
REMARK  240  A    between atoms: _625  and  _626
REMARK  241  A    between atoms: _629  and  _631
REMARK  242  A    between atoms: _631  and  _632
REMARK  243  A    between atoms: _631  and  _634
REMARK  244  A    between atoms: _634  and  _635
REMARK  245  A    between atoms: _645  and  _647
REMARK  246  A    between atoms: _647  and  _648
REMARK  247  A    between atoms: _647  and  _650
REMARK  248  A    between atoms: _650  and  _651
REMARK  249  A    between atoms: _657  and  _658
REMARK  250  A    between atoms: _663  and  _665
REMARK  251  A    between atoms: _665  and  _666
REMARK  252  A    between atoms: _665  and  _668
REMARK  253  A    between atoms: _668  and  _669
REMARK  254  A    between atoms: _672  and  _674
REMARK  255  A    between atoms: _674  and  _675
REMARK  256  A    between atoms: _674  and  _677
REMARK  257  A    between atoms: _677  and  _678
REMARK  258  A    between atoms: _678  and  _679
REMARK  259  A    between atoms: _682  and  _684
REMARK  260  A    between atoms: _684  and  _685
REMARK  261  A    between atoms: _684  and  _687
REMARK  262  A    between atoms: _687  and  _688
REMARK  263  A    between atoms: _688  and  _689
REMARK  264  A    between atoms: _689  and  _690
REMARK  265  A    between atoms: _690  and  _691
REMARK  266  A    between atoms: _695  and  _697
REMARK  267  A    between atoms: _697  and  _698
REMARK  268  A    between atoms: _700  and  _702
REMARK  269  A    between atoms: _702  and  _703
REMARK  270  A    between atoms: _702  and  _705
REMARK  271  A    between atoms: _705  and  _706
REMARK  272  A    between atoms: _711  and  _713
REMARK  273  A    between atoms: _713  and  _714
REMARK  274  A    between atoms: _713  and  _716
REMARK  275  A    between atoms: _716  and  _717
REMARK  276  A    between atoms: _717  and  _718
REMARK  277  A    between atoms: _718  and  _719
REMARK  278  A    between atoms: _728  and  _730
REMARK  279  A    between atoms: _730  and  _731
REMARK  280  A    between atoms: _730  and  _733
REMARK  281  A    between atoms: _733  and  _734
REMARK  282  A    between atoms: _737  and  _739
REMARK  283  A    between atoms: _739  and  _740
REMARK  284  A    between atoms: _739  and  _742
REMARK  285  A    between atoms: _745  and  _747
REMARK  286  A    between atoms: _747  and  _748
REMARK  287  A    between atoms: _747  and  _750
REMARK  288  A    between atoms: _750  and  _751
REMARK  289  A    between atoms: _751  and  _752
REMARK  290  A    between atoms: _758  and  _759
REMARK  291  A    between atoms: _764  and  _766
REMARK  292  A    between atoms: _766  and  _767
REMARK  293  A    between atoms: _766  and  _769
REMARK  294  A    between atoms: _769  and  _770
REMARK  295  A    between atoms: _773  and  _775
REMARK  296  A    between atoms: _775  and  _776
REMARK  297  A    between atoms: _775  and  _778
REMARK  298  A    between atoms: _778  and  _779
REMARK  299  A    between atoms: _782  and  _784
REMARK  300  A    between atoms: _784  and  _785
REMARK  301  A    between atoms: _784  and  _787
REMARK  302  A    between atoms: _787  and  _788
REMARK  303  A    between atoms: _790  and  _792
REMARK  304  A    between atoms: _792  and  _793
REMARK  305  A    between atoms: _792  and  _795
REMARK  306  A    between atoms: _795  and  _796
REMARK  307  A    between atoms: _796  and  _797
REMARK  308  A    between atoms: _797  and  _798
REMARK  309  A    between atoms: _807  and  _809
REMARK  310  A    between atoms: _809  and  _810
REMARK                            x       y       z     vdW  Elec       q    Type
REMARK                         _______ _______ _______ _____ _____    ______ ____
ROOT
ATOM      1  CA  ASN A   5     -38.558 -33.899 -22.626  0.00  0.00    +0.158 C 
ENDROOT
BRANCH   1   2
ATOM      2  N   ASN A   5     -38.170 -35.303 -22.587  0.00  0.00    -0.297 N 
ATOM      3  H   ASN A   5     -37.866 -35.730 -21.689  0.00  0.00    +0.150 HD
ATOM      4  C   ARG A   4     -38.202 -36.039 -23.689  0.00  0.00    +0.241 C 
ATOM      5  O   ARG A   4     -38.506 -35.590 -24.786  0.00  0.00    -0.273 OA
BRANCH   4   6
ATOM      6  CA  ARG A   4     -37.829 -37.484 -23.565  0.00  0.00    +0.149 C 
BRANCH   6   7
ATOM      7  N   ARG A   4     -36.658 -37.743 -22.747  0.00  0.00    -0.297 N 
ATOM      8  H   ARG A   4     -36.767 -38.072 -21.766  0.00  0.00    +0.150 HD
ATOM      9  C   VAL A   3     -35.451 -37.558 -23.257  0.00  0.00    +0.241 C 
ATOM     10  O   VAL A   3     -35.258 -37.136 -24.398  0.00  0.00    -0.273 OA
BRANCH   9  11
ATOM     11  CA  VAL A   3     -34.282 -37.898 -22.357  0.00  0.00    +0.149 C 
BRANCH  11  12
ATOM     12  N   VAL A   3     -34.392 -37.325 -21.031  0.00  0.00    -0.297 N 
ATOM     13  H   VAL A   3     -34.780 -37.905 -20.260  0.00  0.00    +0.150 HD
ATOM     14  C   HIS A   2     -34.012 -36.081 -20.774  0.00  0.00    +0.241 C 
ATOM     15  O   HIS A   2     -33.615 -35.309 -21.647  0.00  0.00    -0.273 OA
BRANCH  14  16
ATOM     16  CA  HIS A   2     -34.142 -35.647 -19.320  0.00  0.00    +0.155 C 
BRANCH  16  17
ATOM     17  N   HIS A   2     -35.347 -36.108 -18.646  0.00  0.00    -0.297 N 
ATOM     18  H   HIS A   2     -35.275 -36.793 -17.867  0.00  0.00    +0.150 HD
ATOM     19  C   TYR A   1     -36.540 -35.657 -19.022  0.00  0.00    +0.239 C 
ATOM     20  O   TYR A   1     -36.683 -34.917 -19.985  0.00  0.00    -0.274 OA
BRANCH  19  21
ATOM     21  CA  TYR A   1     -37.753 -36.137 -18.227  0.00  0.00    +0.149 C 
BRANCH  21  22
ATOM     22  N   TYR A   1     -37.728 -37.577 -18.109  0.00  0.00    -0.238 NA
ATOM     23  H   TYR A   1     -37.735 -38.014 -17.165  0.00  0.00    +0.142 HD
ENDBRANCH  21  22
BRANCH  21  24
ATOM     24  CB  TYR A   1     -37.746 -35.515 -16.818  0.00  0.00    +0.053 C 
BRANCH  24  25
ATOM     25  CG  TYR A   1     -37.586 -34.003 -16.729  0.00  0.00    -0.020 A 
ATOM     26  CD2 TYR A   1     -36.951 -33.427 -15.631  0.00  0.00    -0.001 A 
ATOM     27  CE2 TYR A   1     -36.844 -32.051 -15.503  0.00  0.00    +0.036 A 
ATOM     28  CZ  TYR A   1     -37.373 -31.227 -16.469  0.00  0.00    +0.134 A 
ATOM     29  CE1 TYR A   1     -38.016 -31.772 -17.588  0.00  0.00    +0.036 A 
ATOM     30  CD1 TYR A   1     -38.115 -33.151 -17.708  0.00  0.00    -0.001 A 
BRANCH  28  31
ATOM     31  OH  TYR A   1     -37.274 -29.866 -16.309  0.00  0.00    -0.506 OA
ATOM     32  HH  TYR A   1     -37.698 -29.413 -17.080  0.00  0.00    +0.292 HD
ENDBRANCH  28  31
ENDBRANCH  24  25
ENDBRANCH  21  24
ENDBRANCH  19  21
ENDBRANCH  16  17
BRANCH  16  33
ATOM     33  CB  HIS A   2     -32.901 -36.091 -18.533  0.00  0.00    +0.076 C 
BRANCH  33  34
ATOM     34  CG  HIS A   2     -32.803 -35.500 -17.153  0.00  0.00    +0.082 A 
ATOM     35  ND1 HIS A   2     -31.677 -35.630 -16.362  0.00  0.00    -0.227 NA
ATOM     36  CE1 HIS A   2     -31.869 -35.009 -15.212  0.00  0.00    +0.199 A 
ATOM     37  NE2 HIS A   2     -33.082 -34.481 -15.221  0.00  0.00    -0.221 NA
ATOM     38  CD2 HIS A   2     -33.684 -34.773 -16.422  0.00  0.00    +0.115 A 
ENDBRANCH  33  34
ENDBRANCH  16  33
ENDBRANCH  14  16
ENDBRANCH  11  12
BRANCH  11  39
ATOM     39  CB  VAL A   3     -34.141 -39.422 -22.236  0.00  0.00    +0.027 C 
ATOM     40  CG2 VAL A   3     -32.821 -39.753 -21.544  0.00  0.00    +0.002 C 
ATOM     41  CG1 VAL A   3     -34.236 -40.103 -23.599  0.00  0.00    +0.002 C 
ENDBRANCH  11  39
ENDBRANCH   9  11
ENDBRANCH   6   7
BRANCH   6  42
ATOM     42  CB  ARG A   4     -39.053 -38.245 -23.059  0.00  0.00    +0.033 C 
BRANCH  42  43
ATOM     43  CG  ARG A   4     -39.480 -39.382 -23.973  0.00  0.00    +0.045 C 
BRANCH  43  44
ATOM     44  CD  ARG A   4     -38.458 -40.506 -23.942  0.00  0.00    +0.174 C 
BRANCH  44  45
ATOM     45  NE  ARG A   4     -39.099 -41.816 -23.855  0.00  0.00    -0.265 N 
ATOM     46  CZ  ARG A   4     -39.834 -42.230 -22.826  0.00  0.00    +0.342 C 
ATOM     47  NH2 ARG A   4     -40.034 -41.437 -21.783  0.00  0.00    -0.292 N 
ATOM     48 HH21 ARG A   4     -40.610 -41.767 -20.982  0.00  0.00    +0.255 HD
ATOM     49 HH22 ARG A   4     -39.615 -40.485 -21.766  0.00  0.00    +0.255 HD
ATOM     50  NH1 ARG A   4     -40.361 -43.447 -22.838  0.00  0.00    -0.292 N 
ATOM     51 HH11 ARG A   4     -40.936 -43.773 -22.035  0.00  0.00    +0.255 HD
ATOM     52 HH12 ARG A   4     -40.199 -44.076 -23.651  0.00  0.00    +0.255 HD
ATOM     53  HE  ARG A   4     -38.972 -42.471 -24.653  0.00  0.00    +0.259 HD
ENDBRANCH  44  45
ENDBRANCH  43  44
ENDBRANCH  42  43
ENDBRANCH   6  42
ENDBRANCH   4   6
ENDBRANCH   1   2
BRANCH   1  56
ATOM     54  N   LEU A   6     -36.305 -33.155 -22.295  0.00  0.00    -0.297 N 
ATOM     55  H   LEU A   6     -36.206 -33.936 -21.615  0.00  0.00    +0.150 HD
ATOM     56  C   ASN A   5     -37.443 -32.953 -22.936  0.00  0.00    +0.241 C 
ATOM     57  O   ASN A   5     -37.618 -32.014 -23.707  0.00  0.00    -0.273 OA
BRANCH  54  58
ATOM     58  CA  LEU A   6     -35.204 -32.262 -22.564  0.00  0.00    +0.149 C 
BRANCH  58  61
ATOM     59  N   GLY A   7     -34.715 -33.920 -24.255  0.00  0.00    -0.295 N 
ATOM     60  H   GLY A   7     -35.450 -34.477 -23.773  0.00  0.00    +0.150 HD
ATOM     61  C   LEU A   6     -34.418 -32.708 -23.774  0.00  0.00    +0.241 C 
ATOM     62  O   LEU A   6     -33.573 -31.969 -24.254  0.00  0.00    -0.273 OA
BRANCH  59  63
ATOM     63  CA  GLY A   7     -34.060 -34.498 -25.420  0.00  0.00    +0.176 C 
BRANCH  63  66
ATOM     64  N   TRP A   8     -32.189 -35.132 -23.978  0.00  0.00    -0.297 N 
ATOM     65  H   TRP A   8     -32.877 -35.159 -23.199  0.00  0.00    +0.150 HD
ATOM     66  C   GLY A   7     -32.593 -34.829 -25.206  0.00  0.00    +0.243 C 
ATOM     67  O   GLY A   7     -31.827 -34.837 -26.153  0.00  0.00    -0.273 OA
BRANCH  64  68
ATOM     68  CA  TRP A   8     -30.786 -35.427 -23.716  0.00  0.00    +0.153 C 
BRANCH  68  71
ATOM     69  N   CYS A   9     -29.019 -37.090 -24.073  0.00  0.00    -0.296 N 
ATOM     70  H   CYS A   9     -28.347 -36.306 -23.952  0.00  0.00    +0.150 HD
ATOM     71  C   TRP A   8     -30.332 -36.862 -23.983  0.00  0.00    +0.241 C 
ATOM     72  O   TRP A   8     -31.156 -37.773 -24.050  0.00  0.00    -0.273 OA
BRANCH  69  73
ATOM     73  CA  CYS A   9     -28.522 -38.447 -24.342  0.00  0.00    +0.160 C 
BRANCH  73  74
ATOM     74  C   CYS A   9     -28.791 -39.456 -23.221  0.00  0.00    +0.242 C 
ATOM     75  N   ASP A  10     -28.958 -38.944 -22.013  0.00  0.00    -0.298 N 
ATOM     76  H   ASP A  10     -28.898 -37.913 -21.888  0.00  0.00    +0.150 HD
ATOM     77  O   CYS A   9     -28.838 -40.665 -23.453  0.00  0.00    -0.273 OA
BRANCH  75  78
ATOM     78  CA  ASP A  10     -29.225 -39.788 -20.846  0.00  0.00    +0.148 C 
BRANCH  78  79
ATOM     79  C   ASP A  10     -29.625 -38.897 -19.691  0.00  0.00    +0.227 C 
ATOM     80  O   ASP A  10     -29.573 -37.673 -19.798  0.00  0.00    -0.286 OA
ENDBRANCH  78  79
BRANCH  78  81
ATOM     81  CB  ASP A  10     -27.963 -40.543 -20.394  0.00  0.00    +0.142 C 
BRANCH  81  82
ATOM     82  CG  ASP A  10     -28.259 -41.702 -19.432  0.00  0.00    +0.367 C 
ATOM     83  OD2 ASP A  10     -27.306 -42.230 -18.804  0.00  0.00    -0.246 OA
ATOM     84  OD1 ASP A  10     -29.428 -42.138 -19.340  0.00  0.00    -0.246 OA
ENDBRANCH  81  82
ENDBRANCH  78  81
ENDBRANCH  75  78
ENDBRANCH  73  74
BRANCH  73  85
ATOM     85  CB  CYS A   9     -27.023 -38.383 -24.681  0.00  0.00    +0.098 C 
BRANCH  85  86
ATOM     86  SG  CYS A   9     -25.983 -37.673 -23.365  0.00  0.00    -0.080 S 
BRANCH  86  87
ATOM     87  SG  TYR A   1     -25.576 -39.302 -22.223  0.00  0.00    -0.080 S 
BRANCH  87  88
ATOM     88  CB  TYR A   1     -23.958 -39.878 -22.782  0.00  0.00    +0.094 C 
BRANCH  88  89
ATOM     89  CA  TYR A   1     -23.887 -40.289 -24.236  0.00  0.00    +0.145 C 
BRANCH  89  90
ATOM     90  N   TYR A   1     -25.047 -41.103 -24.611  0.00  0.00    -0.238 NA
ATOM     91  H   TYR A   1     -25.590 -41.590 -23.870  0.00  0.00    +0.142 HD
ENDBRANCH  89  90
BRANCH  89  92
ATOM     92  C   TYR A   1     -22.590 -41.019 -24.441  0.00  0.00    +0.225 C 
ATOM     93  O   TYR A   1     -22.509 -42.213 -24.183  0.00  0.00    -0.287 OA
ENDBRANCH  89  92
ENDBRANCH  88  89
ENDBRANCH  87  88
ENDBRANCH  86  87
ENDBRANCH  85  86
ENDBRANCH  73  85
ENDBRANCH  69  73
ENDBRANCH  68  71
BRANCH  68  94
ATOM     94  CB  TRP A   8     -30.466 -35.087 -22.281  0.00  0.00    +0.057 C 
BRANCH  94  95
ATOM     95  CG  TRP A   8     -30.410 -33.661 -21.909  0.00  0.00    -0.002 A 
ATOM     96  CD2 TRP A   8     -30.204 -33.186 -20.588  0.00  0.00    +0.013 A 
ATOM     97  CE3 TRP A   8     -30.021 -33.824 -19.360  0.00  0.00    +0.001 A 
ATOM     98  CZ3 TRP A   8     -29.830 -33.056 -18.232  0.00  0.00    +0.000 A 
ATOM     99  CH2 TRP A   8     -29.810 -31.658 -18.305  0.00  0.00    +0.001 A 
ATOM    100  CZ2 TRP A   8     -29.993 -30.996 -19.496  0.00  0.00    +0.017 A 
ATOM    101  CE2 TRP A   8     -30.189 -31.782 -20.638  0.00  0.00    +0.056 A 
ATOM    102  NE1 TRP A   8     -30.389 -31.422 -21.944  0.00  0.00    -0.352 N 
ATOM    103  HE1 TRP A   8     -30.432 -30.446 -22.299  0.00  0.00    +0.166 HD
ATOM    104  CD1 TRP A   8     -30.524 -32.555 -22.712  0.00  0.00    +0.068 A 
ENDBRANCH  94  95
ENDBRANCH  68  94
ENDBRANCH  64  68
ENDBRANCH  63  66
ENDBRANCH  59  63
ENDBRANCH  58  61
BRANCH  58 105
ATOM    105  CB  LEU A   6     -34.288 -32.164 -21.368  0.00  0.00    +0.029 C 
BRANCH 105 106
ATOM    106  CG  LEU A   6     -34.976 -31.600 -20.136  0.00  0.00    +0.002 C 
ATOM    107  CD2 LEU A   6     -33.893 -31.437 -19.113  0.00  0.00    +0.000 C 
ATOM    108  CD1 LEU A   6     -35.665 -30.265 -20.393  0.00  0.00    +0.000 C 
ENDBRANCH 105 106
ENDBRANCH  58 105
ENDBRANCH  54  58
ENDBRANCH   1  56
BRANCH   1 109
ATOM    109  CB  ASN A   5     -39.173 -33.460 -21.301  0.00  0.00    +0.114 C 
BRANCH 109 110
ATOM    110  CG  ASN A   5     -40.383 -34.263 -20.932  0.00  0.00    +0.222 C 
ATOM    111  OD1 ASN A   5     -40.566 -34.623 -19.771  0.00  0.00    -0.275 OA
ATOM    112  ND2 ASN A   5     -41.229 -34.543 -21.912  0.00  0.00    -0.329 N 
ATOM    113 HD21 ASN A   5     -42.091 -35.089 -21.714  0.00  0.00    +0.145 HD
ATOM    114 HD22 ASN A   5     -41.031 -34.216 -22.879  0.00  0.00    +0.145 HD
ENDBRANCH 109 110
ENDBRANCH   1 109
TORSDOF 45
REMARK  Name = ../refined-set-2016/3rt4/3rt4_pocket.pdb
REMARK  310 active torsions:
REMARK  status: ('A' for Active; 'I' for Inactive)
REMARK    1  A    between atoms: _1  and  _3
REMARK    2  A    between atoms: _3  and  _4
REMARK    3  A    between atoms: _3  and  _6
REMARK    4  A    between atoms: _6  and  _7
REMARK    5  A    between atoms: _7  and  _8
REMARK    6  A    between atoms: _8  and  _9
REMARK    7  A    between atoms: _18  and  _20
REMARK    8  A    between atoms: _20  and  _21
REMARK    9  A    between atoms: _20  and  _23
REMARK   10  A    between atoms: _26  and  _28
REMARK   11  A    between atoms: _28  and  _29
REMARK   12  A    between atoms: _28  and  _31
REMARK   13  A    between atoms: _31  and  _32
REMARK   14  A    between atoms: _32  and  _33
REMARK   15  A    between atoms: _33  and  _34
REMARK   16  A    between atoms: _43  and  _45
REMARK   17  A    between atoms: _45  and  _46
REMARK   18  A    between atoms: _45  and  _48
REMARK   19  A    between atoms: _48  and  _49
REMARK   20  A    between atoms: _51  and  _53
REMARK   21  A    between atoms: _53  and  _54
REMARK   22  A    between atoms: _53  and  _56
REMARK   23  A    between atoms: _56  and  _57
REMARK   24  A    between atoms: _62  and  _64
REMARK   25  A    between atoms: _64  and  _65
REMARK   26  A    between atoms: _64  and  _67
REMARK   27  A    between atoms: _67  and  _68
REMARK   28  A    between atoms: _73  and  _74
REMARK   29  A    between atoms: _76  and  _78
REMARK   30  A    between atoms: _78  and  _79
REMARK   31  A    between atoms: _78  and  _81
REMARK   32  A    between atoms: _81  and  _82
REMARK   33  A    between atoms: _82  and  _83
REMARK   34  A    between atoms: _86  and  _88
REMARK   35  A    between atoms: _88  and  _89
REMARK   36  A    between atoms: _88  and  _91
REMARK   37  A    between atoms: _91  and  _92
REMARK   38  A    between atoms: _92  and  _93
REMARK   39  A    between atoms: _93  and  _94
REMARK   40  A    between atoms: _94  and  _95
REMARK   41  A    between atoms: _99  and  _101
REMARK   42  A    between atoms: _101  and  _102
REMARK   43  A    between atoms: _101  and  _104
REMARK   44  A    between atoms: _104  and  _105
REMARK   45  A    between atoms: _110  and  _111
REMARK   46  A    between atoms: _113  and  _115
REMARK   47  A    between atoms: _115  and  _116
REMARK   48  A    between atoms: _115  and  _118
REMARK   49  A    between atoms: _118  and  _119
REMARK   50  A    between atoms: _119  and  _120
REMARK   51  A    between atoms: _120  and  _121
REMARK   52  A    between atoms: _130  and  _132
REMARK   53  A    between atoms: _132  and  _133
REMARK   54  A    between atoms: _136  and  _138
REMARK   55  A    between atoms: _138  and  _139
REMARK   56  A    between atoms: _138  and  _141
REMARK   57  A    between atoms: _141  and  _142
REMARK   58  A    between atoms: _142  and  _258
REMARK   59  A    between atoms: _143  and  _145
REMARK   60  A    between atoms: _145  and  _146
REMARK   61  A    between atoms: _145  and  _148
REMARK   62  A    between atoms: _148  and  _149
REMARK   63  A    between atoms: _149  and  _150
REMARK   64  A    between atoms: _153  and  _155
REMARK   65  A    between atoms: _155  and  _156
REMARK   66  A    between atoms: _155  and  _158
REMARK   67  A    between atoms: _158  and  _159
REMARK   68  A    between atoms: _161  and  _163
REMARK   69  A    between atoms: _163  and  _164
REMARK   70  A    between atoms: _163  and  _166
REMARK   71  A    between atoms: _166  and  _167
REMARK   72  A    between atoms: _172  and  _173
REMARK   73  A    between atoms: _175  and  _177
REMARK   74  A    between atoms: _177  and  _178
REMARK   75  A    between atoms: _177  and  _180
REMARK   76  A    between atoms: _180  and  _181
REMARK   77  A    between atoms: _186  and  _188
REMARK   78  A    between atoms: _188  and  _189
REMARK   79  A    between atoms: _188  and  _191
REMARK   80  A    between atoms: _194  and  _196
REMARK   81  A    between atoms: _196  and  _197
REMARK   82  A    between atoms: _196  and  _199
REMARK   83  A    between atoms: _199  and  _200
REMARK   84  A    between atoms: _200  and  _201
REMARK   85  A    between atoms: _201  and  _202
REMARK   86  A    between atoms: _211  and  _213
REMARK   87  A    between atoms: _213  and  _214
REMARK   88  A    between atoms: _213  and  _216
REMARK   89  A    between atoms: _216  and  _217
REMARK   90  A    between atoms: _222  and  _224
REMARK   91  A    between atoms: _224  and  _225
REMARK   92  A    between atoms: _224  and  _227
REMARK   93  A    between atoms: _227  and  _228
REMARK   94  A    between atoms: _231  and  _233
REMARK   95  A    between atoms: _233  and  _234
REMARK   96  A    between atoms: _236  and  _238
REMARK   97  A    between atoms: _238  and  _239
REMARK   98  A    between atoms: _238  and  _241
REMARK   99  A    between atoms: _241  and  _242
REMARK  100  A    between atoms: _252  and  _254
REMARK  101  A    between atoms: _254  and  _255
REMARK  102  A    between atoms: _254  and  _257
REMARK  103  A    between atoms: _257  and  _258
REMARK  104  A    between atoms: _259  and  _261
REMARK  105  A    between atoms: _261  and  _262
REMARK  106  A    between atoms: _261  and  _264
REMARK  107  A    between atoms: _264  and  _265
REMARK  108  A    between atoms: _268  and  _270
REMARK  109  A    between atoms: _270  and  _271
REMARK  110  A    between atoms: _273  and  _275
REMARK  111  A    between atoms: _275  and  _276
REMARK  112  A    between atoms: _275  and  _278
REMARK  113  A    between atoms: _278  and  _279
REMARK  114  A    between atoms: _284  and  _285
REMARK  115  A    between atoms: _287  and  _289
REMARK  116  A    between atoms: _289  and  _290
REMARK  117  A    between atoms: _289  and  _292
REMARK  118  A    between atoms: _292  and  _293
REMARK  119  A    between atoms: _293  and  _294
REMARK  120  A    between atoms: _294  and  _295
REMARK  121  A    between atoms: _304  and  _306
REMARK  122  A    between atoms: _306  and  _307
REMARK  123  A    between atoms: _306  and  _309
REMARK  124  A    between atoms: _309  and  _310
REMARK  125  A    between atoms: _310  and  _311
REMARK  126  A    between atoms: _311  and  _312
REMARK  127  A    between atoms: _312  and  _313
REMARK  128  A    between atoms: _317  and  _319
REMARK  129  A    between atoms: _319  and  _320
REMARK  130  A    between atoms: _322  and  _324
REMARK  131  A    between atoms: _324  and  _325
REMARK  132  A    between atoms: _328  and  _330
REMARK  133  A    between atoms: _330  and  _331
REMARK  134  A    between atoms: _330  and  _333
REMARK  135  A    between atoms: _333  and  _334
REMARK  136  A    between atoms: _339  and  _341
REMARK  137  A    between atoms: _341  and  _342
REMARK  138  A    between atoms: _345  and  _347
REMARK  139  A    between atoms: _347  and  _348
REMARK  140  A    between atoms: _351  and  _352
REMARK  141  A    between atoms: _357  and  _359
REMARK  142  A    between atoms: _359  and  _360
REMARK  143  A    between atoms: _359  and  _362
REMARK  144  A    between atoms: _362  and  _363
REMARK  145  A    between atoms: _366  and  _368
REMARK  146  A    between atoms: _368  and  _369
REMARK  147  A    between atoms: _368  and  _371
REMARK  148  A    between atoms: _371  and  _372
REMARK  149  A    between atoms: _382  and  _384
REMARK  150  A    between atoms: _384  and  _385
REMARK  151  A    between atoms: _384  and  _387
REMARK  152  A    between atoms: _387  and  _388
REMARK  153  A    between atoms: _394  and  _395
REMARK  154  A    between atoms: _400  and  _402
REMARK  155  A    between atoms: _402  and  _403
REMARK  156  A    between atoms: _402  and  _405
REMARK  157  A    between atoms: _405  and  _406
REMARK  158  A    between atoms: _409  and  _411
REMARK  159  A    between atoms: _411  and  _412
REMARK  160  A    between atoms: _411  and  _414
REMARK  161  A    between atoms: _414  and  _415
REMARK  162  A    between atoms: _417  and  _419
REMARK  163  A    between atoms: _419  and  _420
REMARK  164  A    between atoms: _419  and  _422
REMARK  165  A    between atoms: _422  and  _423
REMARK  166  A    between atoms: _428  and  _430
REMARK  167  A    between atoms: _430  and  _431
REMARK  168  A    between atoms: _430  and  _433
REMARK  169  A    between atoms: _436  and  _438
REMARK  170  A    between atoms: _438  and  _439
REMARK  171  A    between atoms: _438  and  _441
REMARK  172  A    between atoms: _441  and  _442
REMARK  173  A    between atoms: _442  and  _443
REMARK  174  A    between atoms: _449  and  _450
REMARK  175  A    between atoms: _455  and  _457
REMARK  176  A    between atoms: _457  and  _458
REMARK  177  A    between atoms: _457  and  _460
REMARK  178  A    between atoms: _460  and  _461
REMARK  179  A    between atoms: _464  and  _466
REMARK  180  A    between atoms: _466  and  _467
REMARK  181  A    between atoms: _466  and  _469
REMARK  182  A    between atoms: _469  and  _470
REMARK  183  A    between atoms: _473  and  _475
REMARK  184  A    between atoms: _475  and  _476
REMARK  185  A    between atoms: _475  and  _478
REMARK  186  A    between atoms: _478  and  _479
REMARK  187  A    between atoms: _481  and  _483
REMARK  188  A    between atoms: _483  and  _484
REMARK  189  A    between atoms: _483  and  _486
REMARK  190  A    between atoms: _486  and  _487
REMARK  191  A    between atoms: _492  and  _493
REMARK  192  A    between atoms: _495  and  _497
REMARK  193  A    between atoms: _497  and  _498
REMARK  194  A    between atoms: _497  and  _500
REMARK  195  A    between atoms: _500  and  _501
REMARK  196  A    between atoms: _506  and  _508
REMARK  197  A    between atoms: _508  and  _509
REMARK  198  A    between atoms: _508  and  _511
REMARK  199  A    between atoms: _511  and  _512
REMARK  200  A    between atoms: _515  and  _517
REMARK  201  A    between atoms: _517  and  _518
REMARK  202  A    between atoms: _517  and  _520
REMARK  203  A    between atoms: _520  and  _521
REMARK  204  A    between atoms: _531  and  _533
REMARK  205  A    between atoms: _533  and  _534
REMARK  206  A    between atoms: _536  and  _538
REMARK  207  A    between atoms: _538  and  _539
REMARK  208  A    between atoms: _538  and  _541
REMARK  209  A    between atoms: _541  and  _542
REMARK  210  A    between atoms: _547  and  _548
REMARK  211  A    between atoms: _550  and  _552
REMARK  212  A    between atoms: _552  and  _553
REMARK  213  A    between atoms: _552  and  _555
REMARK  214  A    between atoms: _555  and  _556
REMARK  215  A    between atoms: _556  and  _557
REMARK  216  A    between atoms: _557  and  _558
REMARK  217  A    between atoms: _567  and  _569
REMARK  218  A    between atoms: _569  and  _570
REMARK  219  A    between atoms: _569  and  _572
REMARK  220  A    between atoms: _572  and  _573
REMARK  221  A    between atoms: _573  and  _574
REMARK  222  A    between atoms: _574  and  _575
REMARK  223  A    between atoms: _575  and  _576
REMARK  224  A    between atoms: _580  and  _582
REMARK  225  A    between atoms: _582  and  _583
REMARK  226  A    between atoms: _585  and  _587
REMARK  227  A    between atoms: _587  and  _588
REMARK  228  A    between atoms: _591  and  _593
REMARK  229  A    between atoms: _593  and  _594
REMARK  230  A    between atoms: _593  and  _596
REMARK  231  A    between atoms: _596  and  _597
REMARK  232  A    between atoms: _602  and  _604
REMARK  233  A    between atoms: _604  and  _605
REMARK  234  A    between atoms: _608  and  _610
REMARK  235  A    between atoms: _610  and  _611
REMARK  236  A    between atoms: _614  and  _615
REMARK  237  A    between atoms: _620  and  _622
REMARK  238  A    between atoms: _622  and  _623
REMARK  239  A    between atoms: _622  and  _625
REMARK  240  A    between atoms: _625  and  _626
REMARK  241  A    between atoms: _629  and  _631
REMARK  242  A    between atoms: _631  and  _632
REMARK  243  A    between atoms: _631  and  _634
REMARK  244  A    between atoms: _634  and  _635
REMARK  245  A    between atoms: _645  and  _647
REMARK  246  A    between atoms: _647  and  _648
REMARK  247  A    between atoms: _647  and  _650
REMARK  248  A    between atoms: _650  and  _651
REMARK  249  A    between atoms: _657  and  _658
REMARK  250  A    between atoms: _663  and  _665
REMARK  251  A    between atoms: _665  and  _666
REMARK  252  A    between atoms: _665  and  _668
REMARK  253  A    between atoms: _668  and  _669
REMARK  254  A    between atoms: _672  and  _674
REMARK  255  A    between atoms: _674  and  _675
REMARK  256  A    between atoms: _674  and  _677
REMARK  257  A    between atoms: _677  and  _678
REMARK  258  A    between atoms: _678  and  _679
REMARK  259  A    between atoms: _682  and  _684
REMARK  260  A    between atoms: _684  and  _685
REMARK  261  A    between atoms: _684  and  _687
REMARK  262  A    between atoms: _687  and  _688
REMARK  263  A    between atoms: _688  and  _689
REMARK  264  A    between atoms: _689  and  _690
REMARK  265  A    between atoms: _690  and  _691
REMARK  266  A    between atoms: _695  and  _697
REMARK  267  A    between atoms: _697  and  _698
REMARK  268  A    between atoms: _700  and  _702
REMARK  269  A    between atoms: _702  and  _703
REMARK  270  A    between atoms: _702  and  _705
REMARK  271  A    between atoms: _705  and  _706
REMARK  272  A    between atoms: _711  and  _713
REMARK  273  A    between atoms: _713  and  _714
REMARK  274  A    between atoms: _713  and  _716
REMARK  275  A    between atoms: _716  and  _717
REMARK  276  A    between atoms: _717  and  _718
REMARK  277  A    between atoms: _718  and  _719
REMARK  278  A    between atoms: _728  and  _730
REMARK  279  A    between atoms: _730  and  _731
REMARK  280  A    between atoms: _730  and  _733
REMARK  281  A    between atoms: _733  and  _734
REMARK  282  A    between atoms: _737  and  _739
REMARK  283  A    between atoms: _739  and  _740
REMARK  284  A    between atoms: _739  and  _742
REMARK  285  A    between atoms: _745  and  _747
REMARK  286  A    between atoms: _747  and  _748
REMARK  287  A    between atoms: _747  and  _750
REMARK  288  A    between atoms: _750  and  _751
REMARK  289  A    between atoms: _751  and  _752
REMARK  290  A    between atoms: _758  and  _759
REMARK  291  A    between atoms: _764  and  _766
REMARK  292  A    between atoms: _766  and  _767
REMARK  293  A    between atoms: _766  and  _769
REMARK  294  A    between atoms: _769  and  _770
REMARK  295  A    between atoms: _773  and  _775
REMARK  296  A    between atoms: _775  and  _776
REMARK  297  A    between atoms: _775  and  _778
REMARK  298  A    between atoms: _778  and  _779
REMARK  299  A    between atoms: _782  and  _784
REMARK  300  A    between atoms: _784  and  _785
REMARK  301  A    between atoms: _784  and  _787
REMARK  302  A    between atoms: _787  and  _788
REMARK  303  A    between atoms: _790  and  _792
REMARK  304  A    between atoms: _792  and  _793
REMARK  305  A    between atoms: _792  and  _795
REMARK  306  A    between atoms: _795  and  _796
REMARK  307  A    between atoms: _796  and  _797
REMARK  308  A    between atoms: _797  and  _798
REMARK  309  A    between atoms: _807  and  _809
REMARK  310  A    between atoms: _809  and  _810
REMARK                            x       y       z     vdW  Elec       q    Type
REMARK                         _______ _______ _______ _____ _____    ______ ____
ROOT
ATOM      1  CA  GLU A   1     -18.057 -38.137 -23.704  0.00  0.00    +0.134 C 
ENDROOT
BRANCH   1   2
ATOM      2  N   GLU A   1     -19.188 -38.924 -24.207  0.00  0.00    -0.239 NA
ATOM      3  H   GLU A   1     -20.122 -38.472 -24.280  0.00  0.00    +0.142 HD
ENDBRANCH   1   2
BRANCH   1   4
ATOM      4  C   GLU A   1     -17.625 -38.702 -22.384  0.00  0.00    +0.224 C 
ATOM      5  O   GLU A   1     -18.448 -38.928 -21.501  0.00  0.00    -0.287 OA
ENDBRANCH   1   4
BRANCH   1   6
ATOM      6  CB  GLU A   1     -18.407 -36.656 -23.498  0.00  0.00    +0.037 C 
BRANCH   6   7
ATOM      7  CG  GLU A   1     -19.335 -36.012 -24.520  0.00  0.00    +0.116 C 
BRANCH   7   8
ATOM      8  CD  GLU A   1     -19.297 -34.473 -24.449  0.00  0.00    +0.365 C 
ATOM      9  OE2 GLU A   1     -18.228 -33.906 -24.122  0.00  0.00    -0.246 OA
ATOM     10  OE1 GLU A   1     -20.326 -33.825 -24.747  0.00  0.00    -0.246 OA
ENDBRANCH   7   8
ENDBRANCH   6   7
ENDBRANCH   1   6
TORSDOF 5
REMARK  Name = ../refined-set-2016/3rt4/3rt4_pocket.pdb
REMARK  310 active torsions:
REMARK  status: ('A' for Active; 'I' for Inactive)
REMARK    1  A    between atoms: _1  and  _3
REMARK    2  A    between atoms: _3  and  _4
REMARK    3  A    between atoms: _3  and  _6
REMARK    4  A    between atoms: _6  and  _7
REMARK    5  A    between atoms: _7  and  _8
REMARK    6  A    between atoms: _8  and  _9
REMARK    7  A    between atoms: _18  and  _20
REMARK    8  A    between atoms: _20  and  _21
REMARK    9  A    between atoms: _20  and  _23
REMARK   10  A    between atoms: _26  and  _28
REMARK   11  A    between atoms: _28  and  _29
REMARK   12  A    between atoms: _28  and  _31
REMARK   13  A    between atoms: _31  and  _32
REMARK   14  A    between atoms: _32  and  _33
REMARK   15  A    between atoms: _33  and  _34
REMARK   16  A    between atoms: _43  and  _45
REMARK   17  A    between atoms: _45  and  _46
REMARK   18  A    between atoms: _45  and  _48
REMARK   19  A    between atoms: _48  and  _49
REMARK   20  A    between atoms: _51  and  _53
REMARK   21  A    between atoms: _53  and  _54
REMARK   22  A    between atoms: _53  and  _56
REMARK   23  A    between atoms: _56  and  _57
REMARK   24  A    between atoms: _62  and  _64
REMARK   25  A    between atoms: _64  and  _65
REMARK   26  A    between atoms: _64  and  _67
REMARK   27  A    between atoms: _67  and  _68
REMARK   28  A    between atoms: _73  and  _74
REMARK   29  A    between atoms: _76  and  _78
REMARK   30  A    between atoms: _78  and  _79
REMARK   31  A    between atoms: _78  and  _81
REMARK   32  A    between atoms: _81  and  _82
REMARK   33  A    between atoms: _82  and  _83
REMARK   34  A    between atoms: _86  and  _88
REMARK   35  A    between atoms: _88  and  _89
REMARK   36  A    between atoms: _88  and  _91
REMARK   37  A    between atoms: _91  and  _92
REMARK   38  A    between atoms: _92  and  _93
REMARK   39  A    between atoms: _93  and  _94
REMARK   40  A    between atoms: _94  and  _95
REMARK   41  A    between atoms: _99  and  _101
REMARK   42  A    between atoms: _101  and  _102
REMARK   43  A    between atoms: _101  and  _104
REMARK   44  A    between atoms: _104  and  _105
REMARK   45  A    between atoms: _110  and  _111
REMARK   46  A    between atoms: _113  and  _115
REMARK   47  A    between atoms: _115  and  _116
REMARK   48  A    between atoms: _115  and  _118
REMARK   49  A    between atoms: _118  and  _119
REMARK   50  A    between atoms: _119  and  _120
REMARK   51  A    between atoms: _120  and  _121
REMARK   52  A    between atoms: _130  and  _132
REMARK   53  A    between atoms: _132  and  _133
REMARK   54  A    between atoms: _136  and  _138
REMARK   55  A    between atoms: _138  and  _139
REMARK   56  A    between atoms: _138  and  _141
REMARK   57  A    between atoms: _141  and  _142
REMARK   58  A    between atoms: _142  and  _258
REMARK   59  A    between atoms: _143  and  _145
REMARK   60  A    between atoms: _145  and  _146
REMARK   61  A    between atoms: _145  and  _148
REMARK   62  A    between atoms: _148  and  _149
REMARK   63  A    between atoms: _149  and  _150
REMARK   64  A    between atoms: _153  and  _155
REMARK   65  A    between atoms: _155  and  _156
REMARK   66  A    between atoms: _155  and  _158
REMARK   67  A    between atoms: _158  and  _159
REMARK   68  A    between atoms: _161  and  _163
REMARK   69  A    between atoms: _163  and  _164
REMARK   70  A    between atoms: _163  and  _166
REMARK   71  A    between atoms: _166  and  _167
REMARK   72  A    between atoms: _172  and  _173
REMARK   73  A    between atoms: _175  and  _177
REMARK   74  A    between atoms: _177  and  _178
REMARK   75  A    between atoms: _177  and  _180
REMARK   76  A    between atoms: _180  and  _181
REMARK   77  A    between atoms: _186  and  _188
REMARK   78  A    between atoms: _188  and  _189
REMARK   79  A    between atoms: _188  and  _191
REMARK   80  A    between atoms: _194  and  _196
REMARK   81  A    between atoms: _196  and  _197
REMARK   82  A    between atoms: _196  and  _199
REMARK   83  A    between atoms: _199  and  _200
REMARK   84  A    between atoms: _200  and  _201
REMARK   85  A    between atoms: _201  and  _202
REMARK   86  A    between atoms: _211  and  _213
REMARK   87  A    between atoms: _213  and  _214
REMARK   88  A    between atoms: _213  and  _216
REMARK   89  A    between atoms: _216  and  _217
REMARK   90  A    between atoms: _222  and  _224
REMARK   91  A    between atoms: _224  and  _225
REMARK   92  A    between atoms: _224  and  _227
REMARK   93  A    between atoms: _227  and  _228
REMARK   94  A    between atoms: _231  and  _233
REMARK   95  A    between atoms: _233  and  _234
REMARK   96  A    between atoms: _236  and  _238
REMARK   97  A    between atoms: _238  and  _239
REMARK   98  A    between atoms: _238  and  _241
REMARK   99  A    between atoms: _241  and  _242
REMARK  100  A    between atoms: _252  and  _254
REMARK  101  A    between atoms: _254  and  _255
REMARK  102  A    between atoms: _254  and  _257
REMARK  103  A    between atoms: _257  and  _258
REMARK  104  A    between atoms: _259  and  _261
REMARK  105  A    between atoms: _261  and  _262
REMARK  106  A    between atoms: _261  and  _264
REMARK  107  A    between atoms: _264  and  _265
REMARK  108  A    between atoms: _268  and  _270
REMARK  109  A    between atoms: _270  and  _271
REMARK  110  A    between atoms: _273  and  _275
REMARK  111  A    between atoms: _275  and  _276
REMARK  112  A    between atoms: _275  and  _278
REMARK  113  A    between atoms: _278  and  _279
REMARK  114  A    between atoms: _284  and  _285
REMARK  115  A    between atoms: _287  and  _289
REMARK  116  A    between atoms: _289  and  _290
REMARK  117  A    between atoms: _289  and  _292
REMARK  118  A    between atoms: _292  and  _293
REMARK  119  A    between atoms: _293  and  _294
REMARK  120  A    between atoms: _294  and  _295
REMARK  121  A    between atoms: _304  and  _306
REMARK  122  A    between atoms: _306  and  _307
REMARK  123  A    between atoms: _306  and  _309
REMARK  124  A    between atoms: _309  and  _310
REMARK  125  A    between atoms: _310  and  _311
REMARK  126  A    between atoms: _311  and  _312
REMARK  127  A    between atoms: _312  and  _313
REMARK  128  A    between atoms: _317  and  _319
REMARK  129  A    between atoms: _319  and  _320
REMARK  130  A    between atoms: _322  and  _324
REMARK  131  A    between atoms: _324  and  _325
REMARK  132  A    between atoms: _328  and  _330
REMARK  133  A    between atoms: _330  and  _331
REMARK  134  A    between atoms: _330  and  _333
REMARK  135  A    between atoms: _333  and  _334
REMARK  136  A    between atoms: _339  and  _341
REMARK  137  A    between atoms: _341  and  _342
REMARK  138  A    between atoms: _345  and  _347
REMARK  139  A    between atoms: _347  and  _348
REMARK  140  A    between atoms: _351  and  _352
REMARK  141  A    between atoms: _357  and  _359
REMARK  142  A    between atoms: _359  and  _360
REMARK  143  A    between atoms: _359  and  _362
REMARK  144  A    between atoms: _362  and  _363
REMARK  145  A    between atoms: _366  and  _368
REMARK  146  A    between atoms: _368  and  _369
REMARK  147  A    between atoms: _368  and  _371
REMARK  148  A    between atoms: _371  and  _372
REMARK  149  A    between atoms: _382  and  _384
REMARK  150  A    between atoms: _384  and  _385
REMARK  151  A    between atoms: _384  and  _387
REMARK  152  A    between atoms: _387  and  _388
REMARK  153  A    between atoms: _394  and  _395
REMARK  154  A    between atoms: _400  and  _402
REMARK  155  A    between atoms: _402  and  _403
REMARK  156  A    between atoms: _402  and  _405
REMARK  157  A    between atoms: _405  and  _406
REMARK  158  A    between atoms: _409  and  _411
REMARK  159  A    between atoms: _411  and  _412
REMARK  160  A    between atoms: _411  and  _414
REMARK  161  A    between atoms: _414  and  _415
REMARK  162  A    between atoms: _417  and  _419
REMARK  163  A    between atoms: _419  and  _420
REMARK  164  A    between atoms: _419  and  _422
REMARK  165  A    between atoms: _422  and  _423
REMARK  166  A    between atoms: _428  and  _430
REMARK  167  A    between atoms: _430  and  _431
REMARK  168  A    between atoms: _430  and  _433
REMARK  169  A    between atoms: _436  and  _438
REMARK  170  A    between atoms: _438  and  _439
REMARK  171  A    between atoms: _438  and  _441
REMARK  172  A    between atoms: _441  and  _442
REMARK  173  A    between atoms: _442  and  _443
REMARK  174  A    between atoms: _449  and  _450
REMARK  175  A    between atoms: _455  and  _457
REMARK  176  A    between atoms: _457  and  _458
REMARK  177  A    between atoms: _457  and  _460
REMARK  178  A    between atoms: _460  and  _461
REMARK  179  A    between atoms: _464  and  _466
REMARK  180  A    between atoms: _466  and  _467
REMARK  181  A    between atoms: _466  and  _469
REMARK  182  A    between atoms: _469  and  _470
REMARK  183  A    between atoms: _473  and  _475
REMARK  184  A    between atoms: _475  and  _476
REMARK  185  A    between atoms: _475  and  _478
REMARK  186  A    between atoms: _478  and  _479
REMARK  187  A    between atoms: _481  and  _483
REMARK  188  A    between atoms: _483  and  _484
REMARK  189  A    between atoms: _483  and  _486
REMARK  190  A    between atoms: _486  and  _487
REMARK  191  A    between atoms: _492  and  _493
REMARK  192  A    between atoms: _495  and  _497
REMARK  193  A    between atoms: _497  and  _498
REMARK  194  A    between atoms: _497  and  _500
REMARK  195  A    between atoms: _500  and  _501
REMARK  196  A    between atoms: _506  and  _508
REMARK  197  A    between atoms: _508  and  _509
REMARK  198  A    between atoms: _508  and  _511
REMARK  199  A    between atoms: _511  and  _512
REMARK  200  A    between atoms: _515  and  _517
REMARK  201  A    between atoms: _517  and  _518
REMARK  202  A    between atoms: _517  and  _520
REMARK  203  A    between atoms: _520  and  _521
REMARK  204  A    between atoms: _531  and  _533
REMARK  205  A    between atoms: _533  and  _534
REMARK  206  A    between atoms: _536  and  _538
REMARK  207  A    between atoms: _538  and  _539
REMARK  208  A    between atoms: _538  and  _541
REMARK  209  A    between atoms: _541  and  _542
REMARK  210  A    between atoms: _547  and  _548
REMARK  211  A    between atoms: _550  and  _552
REMARK  212  A    between atoms: _552  and  _553
REMARK  213  A    between atoms: _552  and  _555
REMARK  214  A    between atoms: _555  and  _556
REMARK  215  A    between atoms: _556  and  _557
REMARK  216  A    between atoms: _557  and  _558
REMARK  217  A    between atoms: _567  and  _569
REMARK  218  A    between atoms: _569  and  _570
REMARK  219  A    between atoms: _569  and  _572
REMARK  220  A    between atoms: _572  and  _573
REMARK  221  A    between atoms: _573  and  _574
REMARK  222  A    between atoms: _574  and  _575
REMARK  223  A    between atoms: _575  and  _576
REMARK  224  A    between atoms: _580  and  _582
REMARK  225  A    between atoms: _582  and  _583
REMARK  226  A    between atoms: _585  and  _587
REMARK  227  A    between atoms: _587  and  _588
REMARK  228  A    between atoms: _591  and  _593
REMARK  229  A    between atoms: _593  and  _594
REMARK  230  A    between atoms: _593  and  _596
REMARK  231  A    between atoms: _596  and  _597
REMARK  232  A    between atoms: _602  and  _604
REMARK  233  A    between atoms: _604  and  _605
REMARK  234  A    between atoms: _608  and  _610
REMARK  235  A    between atoms: _610  and  _611
REMARK  236  A    between atoms: _614  and  _615
REMARK  237  A    between atoms: _620  and  _622
REMARK  238  A    between atoms: _622  and  _623
REMARK  239  A    between atoms: _622  and  _625
REMARK  240  A    between atoms: _625  and  _626
REMARK  241  A    between atoms: _629  and  _631
REMARK  242  A    between atoms: _631  and  _632
REMARK  243  A    between atoms: _631  and  _634
REMARK  244  A    between atoms: _634  and  _635
REMARK  245  A    between atoms: _645  and  _647
REMARK  246  A    between atoms: _647  and  _648
REMARK  247  A    between atoms: _647  and  _650
REMARK  248  A    between atoms: _650  and  _651
REMARK  249  A    between atoms: _657  and  _658
REMARK  250  A    between atoms: _663  and  _665
REMARK  251  A    between atoms: _665  and  _666
REMARK  252  A    between atoms: _665  and  _668
REMARK  253  A    between atoms: _668  and  _669
REMARK  254  A    between atoms: _672  and  _674
REMARK  255  A    between atoms: _674  and  _675
REMARK  256  A    between atoms: _674  and  _677
REMARK  257  A    between atoms: _677  and  _678
REMARK  258  A    between atoms: _678  and  _679
REMARK  259  A    between atoms: _682  and  _684
REMARK  260  A    between atoms: _684  and  _685
REMARK  261  A    between atoms: _684  and  _687
REMARK  262  A    between atoms: _687  and  _688
REMARK  263  A    between atoms: _688  and  _689
REMARK  264  A    between atoms: _689  and  _690
REMARK  265  A    between atoms: _690  and  _691
REMARK  266  A    between atoms: _695  and  _697
REMARK  267  A    between atoms: _697  and  _698
REMARK  268  A    between atoms: _700  and  _702
REMARK  269  A    between atoms: _702  and  _703
REMARK  270  A    between atoms: _702  and  _705
REMARK  271  A    between atoms: _705  and  _706
REMARK  272  A    between atoms: _711  and  _713
REMARK  273  A    between atoms: _713  and  _714
REMARK  274  A    between atoms: _713  and  _716
REMARK  275  A    between atoms: _716  and  _717
REMARK  276  A    between atoms: _717  and  _718
REMARK  277  A    between atoms: _718  and  _719
REMARK  278  A    between atoms: _728  and  _730
REMARK  279  A    between atoms: _730  and  _731
REMARK  280  A    between atoms: _730  and  _733
REMARK  281  A    between atoms: _733  and  _734
REMARK  282  A    between atoms: _737  and  _739
REMARK  283  A    between atoms: _739  and  _740
REMARK  284  A    between atoms: _739  and  _742
REMARK  285  A    between atoms: _745  and  _747
REMARK  286  A    between atoms: _747  and  _748
REMARK  287  A    between atoms: _747  and  _750
REMARK  288  A    between atoms: _750  and  _751
REMARK  289  A    between atoms: _751  and  _752
REMARK  290  A    between atoms: _758  and  _759
REMARK  291  A    between atoms: _764  and  _766
REMARK  292  A    between atoms: _766  and  _767
REMARK  293  A    between atoms: _766  and  _769
REMARK  294  A    between atoms: _769  and  _770
REMARK  295  A    between atoms: _773  and  _775
REMARK  296  A    between atoms: _775  and  _776
REMARK  297  A    between atoms: _775  and  _778
REMARK  298  A    between atoms: _778  and  _779
REMARK  299  A    between atoms: _782  and  _784
REMARK  300  A    between atoms: _784  and  _785
REMARK  301  A    between atoms: _784  and  _787
REMARK  302  A    between atoms: _787  and  _788
REMARK  303  A    between atoms: _790  and  _792
REMARK  304  A    between atoms: _792  and  _793
REMARK  305  A    between atoms: _792  and  _795
REMARK  306  A    between atoms: _795  and  _796
REMARK  307  A    between atoms: _796  and  _797
REMARK  308  A    between atoms: _797  and  _798
REMARK  309  A    between atoms: _807  and  _809
REMARK  310  A    between atoms: _809  and  _810
REMARK                            x       y       z     vdW  Elec       q    Type
REMARK                         _______ _______ _______ _____ _____    ______ ____
ROOT
ATOM      1  CA  SER A   1     -27.951 -31.860  -6.331  0.00  0.00    +0.163 C 
ENDROOT
BRANCH   1   2
ATOM      2  N   SER A   1     -26.718 -32.532  -5.953  0.00  0.00    -0.237 NA
ATOM      3  H   SER A   1     -26.616 -33.544  -6.170  0.00  0.00    +0.142 HD
ENDBRANCH   1   2
BRANCH   1   4
ATOM      4  CB  SER A   1     -29.118 -32.638  -5.789  0.00  0.00    +0.227 C 
ATOM      5  OG  SER A   1     -28.948 -33.702  -5.190  0.00  0.00    -0.287 OA
ENDBRANCH   1   4
BRANCH   1   6
ATOM      6  C   SER A   1     -28.127 -31.849  -7.862  0.00  0.00    +0.162 C 
BRANCH   6   7
ATOM      7  O   SER A   1     -28.167 -33.166  -8.448  0.00  0.00    -0.380 OA
ATOM      8  H   SER A   1     -27.320 -33.640  -8.251  0.00  0.00    +0.211 HD
ENDBRANCH   6   7
ENDBRANCH   1   6
TORSDOF 4
REMARK  Name = ../refined-set-2016/3rt4/3rt4_pocket.pdb
REMARK  310 active torsions:
REMARK  status: ('A' for Active; 'I' for Inactive)
REMARK    1  A    between atoms: _1  and  _3
REMARK    2  A    between atoms: _3  and  _4
REMARK    3  A    between atoms: _3  and  _6
REMARK    4  A    between atoms: _6  and  _7
REMARK    5  A    between atoms: _7  and  _8
REMARK    6  A    between atoms: _8  and  _9
REMARK    7  A    between atoms: _18  and  _20
REMARK    8  A    between atoms: _20  and  _21
REMARK    9  A    between atoms: _20  and  _23
REMARK   10  A    between atoms: _26  and  _28
REMARK   11  A    between atoms: _28  and  _29
REMARK   12  A    between atoms: _28  and  _31
REMARK   13  A    between atoms: _31  and  _32
REMARK   14  A    between atoms: _32  and  _33
REMARK   15  A    between atoms: _33  and  _34
REMARK   16  A    between atoms: _43  and  _45
REMARK   17  A    between atoms: _45  and  _46
REMARK   18  A    between atoms: _45  and  _48
REMARK   19  A    between atoms: _48  and  _49
REMARK   20  A    between atoms: _51  and  _53
REMARK   21  A    between atoms: _53  and  _54
REMARK   22  A    between atoms: _53  and  _56
REMARK   23  A    between atoms: _56  and  _57
REMARK   24  A    between atoms: _62  and  _64
REMARK   25  A    between atoms: _64  and  _65
REMARK   26  A    between atoms: _64  and  _67
REMARK   27  A    between atoms: _67  and  _68
REMARK   28  A    between atoms: _73  and  _74
REMARK   29  A    between atoms: _76  and  _78
REMARK   30  A    between atoms: _78  and  _79
REMARK   31  A    between atoms: _78  and  _81
REMARK   32  A    between atoms: _81  and  _82
REMARK   33  A    between atoms: _82  and  _83
REMARK   34  A    between atoms: _86  and  _88
REMARK   35  A    between atoms: _88  and  _89
REMARK   36  A    between atoms: _88  and  _91
REMARK   37  A    between atoms: _91  and  _92
REMARK   38  A    between atoms: _92  and  _93
REMARK   39  A    between atoms: _93  and  _94
REMARK   40  A    between atoms: _94  and  _95
REMARK   41  A    between atoms: _99  and  _101
REMARK   42  A    between atoms: _101  and  _102
REMARK   43  A    between atoms: _101  and  _104
REMARK   44  A    between atoms: _104  and  _105
REMARK   45  A    between atoms: _110  and  _111
REMARK   46  A    between atoms: _113  and  _115
REMARK   47  A    between atoms: _115  and  _116
REMARK   48  A    between atoms: _115  and  _118
REMARK   49  A    between atoms: _118  and  _119
REMARK   50  A    between atoms: _119  and  _120
REMARK   51  A    between atoms: _120  and  _121
REMARK   52  A    between atoms: _130  and  _132
REMARK   53  A    between atoms: _132  and  _133
REMARK   54  A    between atoms: _136  and  _138
REMARK   55  A    between atoms: _138  and  _139
REMARK   56  A    between atoms: _138  and  _141
REMARK   57  A    between atoms: _141  and  _142
REMARK   58  A    between atoms: _142  and  _258
REMARK   59  A    between atoms: _143  and  _145
REMARK   60  A    between atoms: _145  and  _146
REMARK   61  A    between atoms: _145  and  _148
REMARK   62  A    between atoms: _148  and  _149
REMARK   63  A    between atoms: _149  and  _150
REMARK   64  A    between atoms: _153  and  _155
REMARK   65  A    between atoms: _155  and  _156
REMARK   66  A    between atoms: _155  and  _158
REMARK   67  A    between atoms: _158  and  _159
REMARK   68  A    between atoms: _161  and  _163
REMARK   69  A    between atoms: _163  and  _164
REMARK   70  A    between atoms: _163  and  _166
REMARK   71  A    between atoms: _166  and  _167
REMARK   72  A    between atoms: _172  and  _173
REMARK   73  A    between atoms: _175  and  _177
REMARK   74  A    between atoms: _177  and  _178
REMARK   75  A    between atoms: _177  and  _180
REMARK   76  A    between atoms: _180  and  _181
REMARK   77  A    between atoms: _186  and  _188
REMARK   78  A    between atoms: _188  and  _189
REMARK   79  A    between atoms: _188  and  _191
REMARK   80  A    between atoms: _194  and  _196
REMARK   81  A    between atoms: _196  and  _197
REMARK   82  A    between atoms: _196  and  _199
REMARK   83  A    between atoms: _199  and  _200
REMARK   84  A    between atoms: _200  and  _201
REMARK   85  A    between atoms: _201  and  _202
REMARK   86  A    between atoms: _211  and  _213
REMARK   87  A    between atoms: _213  and  _214
REMARK   88  A    between atoms: _213  and  _216
REMARK   89  A    between atoms: _216  and  _217
REMARK   90  A    between atoms: _222  and  _224
REMARK   91  A    between atoms: _224  and  _225
REMARK   92  A    between atoms: _224  and  _227
REMARK   93  A    between atoms: _227  and  _228
REMARK   94  A    between atoms: _231  and  _233
REMARK   95  A    between atoms: _233  and  _234
REMARK   96  A    between atoms: _236  and  _238
REMARK   97  A    between atoms: _238  and  _239
REMARK   98  A    between atoms: _238  and  _241
REMARK   99  A    between atoms: _241  and  _242
REMARK  100  A    between atoms: _252  and  _254
REMARK  101  A    between atoms: _254  and  _255
REMARK  102  A    between atoms: _254  and  _257
REMARK  103  A    between atoms: _257  and  _258
REMARK  104  A    between atoms: _259  and  _261
REMARK  105  A    between atoms: _261  and  _262
REMARK  106  A    between atoms: _261  and  _264
REMARK  107  A    between atoms: _264  and  _265
REMARK  108  A    between atoms: _268  and  _270
REMARK  109  A    between atoms: _270  and  _271
REMARK  110  A    between atoms: _273  and  _275
REMARK  111  A    between atoms: _275  and  _276
REMARK  112  A    between atoms: _275  and  _278
REMARK  113  A    between atoms: _278  and  _279
REMARK  114  A    between atoms: _284  and  _285
REMARK  115  A    between atoms: _287  and  _289
REMARK  116  A    between atoms: _289  and  _290
REMARK  117  A    between atoms: _289  and  _292
REMARK  118  A    between atoms: _292  and  _293
REMARK  119  A    between atoms: _293  and  _294
REMARK  120  A    between atoms: _294  and  _295
REMARK  121  A    between atoms: _304  and  _306
REMARK  122  A    between atoms: _306  and  _307
REMARK  123  A    between atoms: _306  and  _309
REMARK  124  A    between atoms: _309  and  _310
REMARK  125  A    between atoms: _310  and  _311
REMARK  126  A    between atoms: _311  and  _312
REMARK  127  A    between atoms: _312  and  _313
REMARK  128  A    between atoms: _317  and  _319
REMARK  129  A    between atoms: _319  and  _320
REMARK  130  A    between atoms: _322  and  _324
REMARK  131  A    between atoms: _324  and  _325
REMARK  132  A    between atoms: _328  and  _330
REMARK  133  A    between atoms: _330  and  _331
REMARK  134  A    between atoms: _330  and  _333
REMARK  135  A    between atoms: _333  and  _334
REMARK  136  A    between atoms: _339  and  _341
REMARK  137  A    between atoms: _341  and  _342
REMARK  138  A    between atoms: _345  and  _347
REMARK  139  A    between atoms: _347  and  _348
REMARK  140  A    between atoms: _351  and  _352
REMARK  141  A    between atoms: _357  and  _359
REMARK  142  A    between atoms: _359  and  _360
REMARK  143  A    between atoms: _359  and  _362
REMARK  144  A    between atoms: _362  and  _363
REMARK  145  A    between atoms: _366  and  _368
REMARK  146  A    between atoms: _368  and  _369
REMARK  147  A    between atoms: _368  and  _371
REMARK  148  A    between atoms: _371  and  _372
REMARK  149  A    between atoms: _382  and  _384
REMARK  150  A    between atoms: _384  and  _385
REMARK  151  A    between atoms: _384  and  _387
REMARK  152  A    between atoms: _387  and  _388
REMARK  153  A    between atoms: _394  and  _395
REMARK  154  A    between atoms: _400  and  _402
REMARK  155  A    between atoms: _402  and  _403
REMARK  156  A    between atoms: _402  and  _405
REMARK  157  A    between atoms: _405  and  _406
REMARK  158  A    between atoms: _409  and  _411
REMARK  159  A    between atoms: _411  and  _412
REMARK  160  A    between atoms: _411  and  _414
REMARK  161  A    between atoms: _414  and  _415
REMARK  162  A    between atoms: _417  and  _419
REMARK  163  A    between atoms: _419  and  _420
REMARK  164  A    between atoms: _419  and  _422
REMARK  165  A    between atoms: _422  and  _423
REMARK  166  A    between atoms: _428  and  _430
REMARK  167  A    between atoms: _430  and  _431
REMARK  168  A    between atoms: _430  and  _433
REMARK  169  A    between atoms: _436  and  _438
REMARK  170  A    between atoms: _438  and  _439
REMARK  171  A    between atoms: _438  and  _441
REMARK  172  A    between atoms: _441  and  _442
REMARK  173  A    between atoms: _442  and  _443
REMARK  174  A    between atoms: _449  and  _450
REMARK  175  A    between atoms: _455  and  _457
REMARK  176  A    between atoms: _457  and  _458
REMARK  177  A    between atoms: _457  and  _460
REMARK  178  A    between atoms: _460  and  _461
REMARK  179  A    between atoms: _464  and  _466
REMARK  180  A    between atoms: _466  and  _467
REMARK  181  A    between atoms: _466  and  _469
REMARK  182  A    between atoms: _469  and  _470
REMARK  183  A    between atoms: _473  and  _475
REMARK  184  A    between atoms: _475  and  _476
REMARK  185  A    between atoms: _475  and  _478
REMARK  186  A    between atoms: _478  and  _479
REMARK  187  A    between atoms: _481  and  _483
REMARK  188  A    between atoms: _483  and  _484
REMARK  189  A    between atoms: _483  and  _486
REMARK  190  A    between atoms: _486  and  _487
REMARK  191  A    between atoms: _492  and  _493
REMARK  192  A    between atoms: _495  and  _497
REMARK  193  A    between atoms: _497  and  _498
REMARK  194  A    between atoms: _497  and  _500
REMARK  195  A    between atoms: _500  and  _501
REMARK  196  A    between atoms: _506  and  _508
REMARK  197  A    between atoms: _508  and  _509
REMARK  198  A    between atoms: _508  and  _511
REMARK  199  A    between atoms: _511  and  _512
REMARK  200  A    between atoms: _515  and  _517
REMARK  201  A    between atoms: _517  and  _518
REMARK  202  A    between atoms: _517  and  _520
REMARK  203  A    between atoms: _520  and  _521
REMARK  204  A    between atoms: _531  and  _533
REMARK  205  A    between atoms: _533  and  _534
REMARK  206  A    between atoms: _536  and  _538
REMARK  207  A    between atoms: _538  and  _539
REMARK  208  A    between atoms: _538  and  _541
REMARK  209  A    between atoms: _541  and  _542
REMARK  210  A    between atoms: _547  and  _548
REMARK  211  A    between atoms: _550  and  _552
REMARK  212  A    between atoms: _552  and  _553
REMARK  213  A    between atoms: _552  and  _555
REMARK  214  A    between atoms: _555  and  _556
REMARK  215  A    between atoms: _556  and  _557
REMARK  216  A    between atoms: _557  and  _558
REMARK  217  A    between atoms: _567  and  _569
REMARK  218  A    between atoms: _569  and  _570
REMARK  219  A    between atoms: _569  and  _572
REMARK  220  A    between atoms: _572  and  _573
REMARK  221  A    between atoms: _573  and  _574
REMARK  222  A    between atoms: _574  and  _575
REMARK  223  A    between atoms: _575  and  _576
REMARK  224  A    between atoms: _580  and  _582
REMARK  225  A    between atoms: _582  and  _583
REMARK  226  A    between atoms: _585  and  _587
REMARK  227  A    between atoms: _587  and  _588
REMARK  228  A    between atoms: _591  and  _593
REMARK  229  A    between atoms: _593  and  _594
REMARK  230  A    between atoms: _593  and  _596
REMARK  231  A    between atoms: _596  and  _597
REMARK  232  A    between atoms: _602  and  _604
REMARK  233  A    between atoms: _604  and  _605
REMARK  234  A    between atoms: _608  and  _610
REMARK  235  A    between atoms: _610  and  _611
REMARK  236  A    between atoms: _614  and  _615
REMARK  237  A    between atoms: _620  and  _622
REMARK  238  A    between atoms: _622  and  _623
REMARK  239  A    between atoms: _622  and  _625
REMARK  240  A    between atoms: _625  and  _626
REMARK  241  A    between atoms: _629  and  _631
REMARK  242  A    between atoms: _631  and  _632
REMARK  243  A    between atoms: _631  and  _634
REMARK  244  A    between atoms: _634  and  _635
REMARK  245  A    between atoms: _645  and  _647
REMARK  246  A    between atoms: _647  and  _648
REMARK  247  A    between atoms: _647  and  _650
REMARK  248  A    between atoms: _650  and  _651
REMARK  249  A    between atoms: _657  and  _658
REMARK  250  A    between atoms: _663  and  _665
REMARK  251  A    between atoms: _665  and  _666
REMARK  252  A    between atoms: _665  and  _668
REMARK  253  A    between atoms: _668  and  _669
REMARK  254  A    between atoms: _672  and  _674
REMARK  255  A    between atoms: _674  and  _675
REMARK  256  A    between atoms: _674  and  _677
REMARK  257  A    between atoms: _677  and  _678
REMARK  258  A    between atoms: _678  and  _679
REMARK  259  A    between atoms: _682  and  _684
REMARK  260  A    between atoms: _684  and  _685
REMARK  261  A    between atoms: _684  and  _687
REMARK  262  A    between atoms: _687  and  _688
REMARK  263  A    between atoms: _688  and  _689
REMARK  264  A    between atoms: _689  and  _690
REMARK  265  A    between atoms: _690  and  _691
REMARK  266  A    between atoms: _695  and  _697
REMARK  267  A    between atoms: _697  and  _698
REMARK  268  A    between atoms: _700  and  _702
REMARK  269  A    between atoms: _702  and  _703
REMARK  270  A    between atoms: _702  and  _705
REMARK  271  A    between atoms: _705  and  _706
REMARK  272  A    between atoms: _711  and  _713
REMARK  273  A    between atoms: _713  and  _714
REMARK  274  A    between atoms: _713  and  _716
REMARK  275  A    between atoms: _716  and  _717
REMARK  276  A    between atoms: _717  and  _718
REMARK  277  A    between atoms: _718  and  _719
REMARK  278  A    between atoms: _728  and  _730
REMARK  279  A    between atoms: _730  and  _731
REMARK  280  A    between atoms: _730  and  _733
REMARK  281  A    between atoms: _733  and  _734
REMARK  282  A    between atoms: _737  and  _739
REMARK  283  A    between atoms: _739  and  _740
REMARK  284  A    between atoms: _739  and  _742
REMARK  285  A    between atoms: _745  and  _747
REMARK  286  A    between atoms: _747  and  _748
REMARK  287  A    between atoms: _747  and  _750
REMARK  288  A    between atoms: _750  and  _751
REMARK  289  A    between atoms: _751  and  _752
REMARK  290  A    between atoms: _758  and  _759
REMARK  291  A    between atoms: _764  and  _766
REMARK  292  A    between atoms: _766  and  _767
REMARK  293  A    between atoms: _766  and  _769
REMARK  294  A    between atoms: _769  and  _770
REMARK  295  A    between atoms: _773  and  _775
REMARK  296  A    between atoms: _775  and  _776
REMARK  297  A    between atoms: _775  and  _778
REMARK  298  A    between atoms: _778  and  _779
REMARK  299  A    between atoms: _782  and  _784
REMARK  300  A    between atoms: _784  and  _785
REMARK  301  A    between atoms: _784  and  _787
REMARK  302  A    between atoms: _787  and  _788
REMARK  303  A    between atoms: _790  and  _792
REMARK  304  A    between atoms: _792  and  _793
REMARK  305  A    between atoms: _792  and  _795
REMARK  306  A    between atoms: _795  and  _796
REMARK  307  A    between atoms: _796  and  _797
REMARK  308  A    between atoms: _797  and  _798
REMARK  309  A    between atoms: _807  and  _809
REMARK  310  A    between atoms: _809  and  _810
REMARK                            x       y       z     vdW  Elec       q    Type
REMARK                         _______ _______ _______ _____ _____    ______ ____
ROOT
ATOM      1  CA  TYR A   2     -26.664 -37.421 -13.211  0.00  0.00    +0.141 C 
ENDROOT
BRANCH   1   3
ATOM      2  C   GLY A   1     -27.000 -36.369 -15.376  0.00  0.00    +0.240 C 
ATOM      3  N   TYR A   2     -27.484 -37.071 -14.359  0.00  0.00    -0.298 N 
ATOM      4  H   TYR A   2     -28.477 -37.379 -14.384  0.00  0.00    +0.150 HD
ATOM      5  O   GLY A   1     -25.814 -36.038 -15.461  0.00  0.00    -0.274 OA
BRANCH   2   6
ATOM      6  CA  GLY A   1     -27.953 -36.026 -16.493  0.00  0.00    +0.169 C 
BRANCH   6   7
ATOM      7  N   GLY A   1     -29.159 -36.813 -16.663  0.00  0.00    -0.236 NA
ATOM      8  H   GLY A   1     -30.084 -36.412 -16.407  0.00  0.00    +0.142 HD
ENDBRANCH   6   7
ENDBRANCH   2   6
ENDBRANCH   1   3
BRANCH   1   9
ATOM      9  C   TYR A   2     -25.817 -38.653 -13.380  0.00  0.00    +0.227 C 
ATOM     10  O   TYR A   2     -26.211 -39.564 -14.094  0.00  0.00    -0.286 OA
ENDBRANCH   1   9
BRANCH   1  11
ATOM     11  CB  TYR A   2     -27.560 -37.603 -11.991  0.00  0.00    +0.054 C 
BRANCH  11  12
ATOM     12  CG  TYR A   2     -28.593 -36.519 -11.863  0.00  0.00    -0.020 A 
ATOM     13  CD2 TYR A   2     -28.219 -35.195 -11.572  0.00  0.00    -0.001 A 
ATOM     14  CE2 TYR A   2     -29.166 -34.203 -11.479  0.00  0.00    +0.036 A 
ATOM     15  CZ  TYR A   2     -30.499 -34.530 -11.682  0.00  0.00    +0.134 A 
ATOM     16  CE1 TYR A   2     -30.887 -35.824 -11.975  0.00  0.00    +0.036 A 
ATOM     17  CD1 TYR A   2     -29.943 -36.807 -12.064  0.00  0.00    -0.001 A 
BRANCH  15  18
ATOM     18  OH  TYR A   2     -31.474 -33.573 -11.620  0.00  0.00    -0.506 OA
ATOM     19  HH  TYR A   2     -31.298 -32.880 -12.305  0.00  0.00    +0.292 HD
ENDBRANCH  15  18
ENDBRANCH  11  12
ENDBRANCH   1  11
TORSDOF 7
REMARK  Name = ../refined-set-2016/3rt4/3rt4_pocket.pdb
REMARK  310 active torsions:
REMARK  status: ('A' for Active; 'I' for Inactive)
REMARK    1  A    between atoms: _1  and  _3
REMARK    2  A    between atoms: _3  and  _4
REMARK    3  A    between atoms: _3  and  _6
REMARK    4  A    between atoms: _6  and  _7
REMARK    5  A    between atoms: _7  and  _8
REMARK    6  A    between atoms: _8  and  _9
REMARK    7  A    between atoms: _18  and  _20
REMARK    8  A    between atoms: _20  and  _21
REMARK    9  A    between atoms: _20  and  _23
REMARK   10  A    between atoms: _26  and  _28
REMARK   11  A    between atoms: _28  and  _29
REMARK   12  A    between atoms: _28  and  _31
REMARK   13  A    between atoms: _31  and  _32
REMARK   14  A    between atoms: _32  and  _33
REMARK   15  A    between atoms: _33  and  _34
REMARK   16  A    between atoms: _43  and  _45
REMARK   17  A    between atoms: _45  and  _46
REMARK   18  A    between atoms: _45  and  _48
REMARK   19  A    between atoms: _48  and  _49
REMARK   20  A    between atoms: _51  and  _53
REMARK   21  A    between atoms: _53  and  _54
REMARK   22  A    between atoms: _53  and  _56
REMARK   23  A    between atoms: _56  and  _57
REMARK   24  A    between atoms: _62  and  _64
REMARK   25  A    between atoms: _64  and  _65
REMARK   26  A    between atoms: _64  and  _67
REMARK   27  A    between atoms: _67  and  _68
REMARK   28  A    between atoms: _73  and  _74
REMARK   29  A    between atoms: _76  and  _78
REMARK   30  A    between atoms: _78  and  _79
REMARK   31  A    between atoms: _78  and  _81
REMARK   32  A    between atoms: _81  and  _82
REMARK   33  A    between atoms: _82  and  _83
REMARK   34  A    between atoms: _86  and  _88
REMARK   35  A    between atoms: _88  and  _89
REMARK   36  A    between atoms: _88  and  _91
REMARK   37  A    between atoms: _91  and  _92
REMARK   38  A    between atoms: _92  and  _93
REMARK   39  A    between atoms: _93  and  _94
REMARK   40  A    between atoms: _94  and  _95
REMARK   41  A    between atoms: _99  and  _101
REMARK   42  A    between atoms: _101  and  _102
REMARK   43  A    between atoms: _101  and  _104
REMARK   44  A    between atoms: _104  and  _105
REMARK   45  A    between atoms: _110  and  _111
REMARK   46  A    between atoms: _113  and  _115
REMARK   47  A    between atoms: _115  and  _116
REMARK   48  A    between atoms: _115  and  _118
REMARK   49  A    between atoms: _118  and  _119
REMARK   50  A    between atoms: _119  and  _120
REMARK   51  A    between atoms: _120  and  _121
REMARK   52  A    between atoms: _130  and  _132
REMARK   53  A    between atoms: _132  and  _133
REMARK   54  A    between atoms: _136  and  _138
REMARK   55  A    between atoms: _138  and  _139
REMARK   56  A    between atoms: _138  and  _141
REMARK   57  A    between atoms: _141  and  _142
REMARK   58  A    between atoms: _142  and  _258
REMARK   59  A    between atoms: _143  and  _145
REMARK   60  A    between atoms: _145  and  _146
REMARK   61  A    between atoms: _145  and  _148
REMARK   62  A    between atoms: _148  and  _149
REMARK   63  A    between atoms: _149  and  _150
REMARK   64  A    between atoms: _153  and  _155
REMARK   65  A    between atoms: _155  and  _156
REMARK   66  A    between atoms: _155  and  _158
REMARK   67  A    between atoms: _158  and  _159
REMARK   68  A    between atoms: _161  and  _163
REMARK   69  A    between atoms: _163  and  _164
REMARK   70  A    between atoms: _163  and  _166
REMARK   71  A    between atoms: _166  and  _167
REMARK   72  A    between atoms: _172  and  _173
REMARK   73  A    between atoms: _175  and  _177
REMARK   74  A    between atoms: _177  and  _178
REMARK   75  A    between atoms: _177  and  _180
REMARK   76  A    between atoms: _180  and  _181
REMARK   77  A    between atoms: _186  and  _188
REMARK   78  A    between atoms: _188  and  _189
REMARK   79  A    between atoms: _188  and  _191
REMARK   80  A    between atoms: _194  and  _196
REMARK   81  A    between atoms: _196  and  _197
REMARK   82  A    between atoms: _196  and  _199
REMARK   83  A    between atoms: _199  and  _200
REMARK   84  A    between atoms: _200  and  _201
REMARK   85  A    between atoms: _201  and  _202
REMARK   86  A    between atoms: _211  and  _213
REMARK   87  A    between atoms: _213  and  _214
REMARK   88  A    between atoms: _213  and  _216
REMARK   89  A    between atoms: _216  and  _217
REMARK   90  A    between atoms: _222  and  _224
REMARK   91  A    between atoms: _224  and  _225
REMARK   92  A    between atoms: _224  and  _227
REMARK   93  A    between atoms: _227  and  _228
REMARK   94  A    between atoms: _231  and  _233
REMARK   95  A    between atoms: _233  and  _234
REMARK   96  A    between atoms: _236  and  _238
REMARK   97  A    between atoms: _238  and  _239
REMARK   98  A    between atoms: _238  and  _241
REMARK   99  A    between atoms: _241  and  _242
REMARK  100  A    between atoms: _252  and  _254
REMARK  101  A    between atoms: _254  and  _255
REMARK  102  A    between atoms: _254  and  _257
REMARK  103  A    between atoms: _257  and  _258
REMARK  104  A    between atoms: _259  and  _261
REMARK  105  A    between atoms: _261  and  _262
REMARK  106  A    between atoms: _261  and  _264
REMARK  107  A    between atoms: _264  and  _265
REMARK  108  A    between atoms: _268  and  _270
REMARK  109  A    between atoms: _270  and  _271
REMARK  110  A    between atoms: _273  and  _275
REMARK  111  A    between atoms: _275  and  _276
REMARK  112  A    between atoms: _275  and  _278
REMARK  113  A    between atoms: _278  and  _279
REMARK  114  A    between atoms: _284  and  _285
REMARK  115  A    between atoms: _287  and  _289
REMARK  116  A    between atoms: _289  and  _290
REMARK  117  A    between atoms: _289  and  _292
REMARK  118  A    between atoms: _292  and  _293
REMARK  119  A    between atoms: _293  and  _294
REMARK  120  A    between atoms: _294  and  _295
REMARK  121  A    between atoms: _304  and  _306
REMARK  122  A    between atoms: _306  and  _307
REMARK  123  A    between atoms: _306  and  _309
REMARK  124  A    between atoms: _309  and  _310
REMARK  125  A    between atoms: _310  and  _311
REMARK  126  A    between atoms: _311  and  _312
REMARK  127  A    between atoms: _312  and  _313
REMARK  128  A    between atoms: _317  and  _319
REMARK  129  A    between atoms: _319  and  _320
REMARK  130  A    between atoms: _322  and  _324
REMARK  131  A    between atoms: _324  and  _325
REMARK  132  A    between atoms: _328  and  _330
REMARK  133  A    between atoms: _330  and  _331
REMARK  134  A    between atoms: _330  and  _333
REMARK  135  A    between atoms: _333  and  _334
REMARK  136  A    between atoms: _339  and  _341
REMARK  137  A    between atoms: _341  and  _342
REMARK  138  A    between atoms: _345  and  _347
REMARK  139  A    between atoms: _347  and  _348
REMARK  140  A    between atoms: _351  and  _352
REMARK  141  A    between atoms: _357  and  _359
REMARK  142  A    between atoms: _359  and  _360
REMARK  143  A    between atoms: _359  and  _362
REMARK  144  A    between atoms: _362  and  _363
REMARK  145  A    between atoms: _366  and  _368
REMARK  146  A    between atoms: _368  and  _369
REMARK  147  A    between atoms: _368  and  _371
REMARK  148  A    between atoms: _371  and  _372
REMARK  149  A    between atoms: _382  and  _384
REMARK  150  A    between atoms: _384  and  _385
REMARK  151  A    between atoms: _384  and  _387
REMARK  152  A    between atoms: _387  and  _388
REMARK  153  A    between atoms: _394  and  _395
REMARK  154  A    between atoms: _400  and  _402
REMARK  155  A    between atoms: _402  and  _403
REMARK  156  A    between atoms: _402  and  _405
REMARK  157  A    between atoms: _405  and  _406
REMARK  158  A    between atoms: _409  and  _411
REMARK  159  A    between atoms: _411  and  _412
REMARK  160  A    between atoms: _411  and  _414
REMARK  161  A    between atoms: _414  and  _415
REMARK  162  A    between atoms: _417  and  _419
REMARK  163  A    between atoms: _419  and  _420
REMARK  164  A    between atoms: _419  and  _422
REMARK  165  A    between atoms: _422  and  _423
REMARK  166  A    between atoms: _428  and  _430
REMARK  167  A    between atoms: _430  and  _431
REMARK  168  A    between atoms: _430  and  _433
REMARK  169  A    between atoms: _436  and  _438
REMARK  170  A    between atoms: _438  and  _439
REMARK  171  A    between atoms: _438  and  _441
REMARK  172  A    between atoms: _441  and  _442
REMARK  173  A    between atoms: _442  and  _443
REMARK  174  A    between atoms: _449  and  _450
REMARK  175  A    between atoms: _455  and  _457
REMARK  176  A    between atoms: _457  and  _458
REMARK  177  A    between atoms: _457  and  _460
REMARK  178  A    between atoms: _460  and  _461
REMARK  179  A    between atoms: _464  and  _466
REMARK  180  A    between atoms: _466  and  _467
REMARK  181  A    between atoms: _466  and  _469
REMARK  182  A    between atoms: _469  and  _470
REMARK  183  A    between atoms: _473  and  _475
REMARK  184  A    between atoms: _475  and  _476
REMARK  185  A    between atoms: _475  and  _478
REMARK  186  A    between atoms: _478  and  _479
REMARK  187  A    between atoms: _481  and  _483
REMARK  188  A    between atoms: _483  and  _484
REMARK  189  A    between atoms: _483  and  _486
REMARK  190  A    between atoms: _486  and  _487
REMARK  191  A    between atoms: _492  and  _493
REMARK  192  A    between atoms: _495  and  _497
REMARK  193  A    between atoms: _497  and  _498
REMARK  194  A    between atoms: _497  and  _500
REMARK  195  A    between atoms: _500  and  _501
REMARK  196  A    between atoms: _506  and  _508
REMARK  197  A    between atoms: _508  and  _509
REMARK  198  A    between atoms: _508  and  _511
REMARK  199  A    between atoms: _511  and  _512
REMARK  200  A    between atoms: _515  and  _517
REMARK  201  A    between atoms: _517  and  _518
REMARK  202  A    between atoms: _517  and  _520
REMARK  203  A    between atoms: _520  and  _521
REMARK  204  A    between atoms: _531  and  _533
REMARK  205  A    between atoms: _533  and  _534
REMARK  206  A    between atoms: _536  and  _538
REMARK  207  A    between atoms: _538  and  _539
REMARK  208  A    between atoms: _538  and  _541
REMARK  209  A    between atoms: _541  and  _542
REMARK  210  A    between atoms: _547  and  _548
REMARK  211  A    between atoms: _550  and  _552
REMARK  212  A    between atoms: _552  and  _553
REMARK  213  A    between atoms: _552  and  _555
REMARK  214  A    between atoms: _555  and  _556
REMARK  215  A    between atoms: _556  and  _557
REMARK  216  A    between atoms: _557  and  _558
REMARK  217  A    between atoms: _567  and  _569
REMARK  218  A    between atoms: _569  and  _570
REMARK  219  A    between atoms: _569  and  _572
REMARK  220  A    between atoms: _572  and  _573
REMARK  221  A    between atoms: _573  and  _574
REMARK  222  A    between atoms: _574  and  _575
REMARK  223  A    between atoms: _575  and  _576
REMARK  224  A    between atoms: _580  and  _582
REMARK  225  A    between atoms: _582  and  _583
REMARK  226  A    between atoms: _585  and  _587
REMARK  227  A    between atoms: _587  and  _588
REMARK  228  A    between atoms: _591  and  _593
REMARK  229  A    between atoms: _593  and  _594
REMARK  230  A    between atoms: _593  and  _596
REMARK  231  A    between atoms: _596  and  _597
REMARK  232  A    between atoms: _602  and  _604
REMARK  233  A    between atoms: _604  and  _605
REMARK  234  A    between atoms: _608  and  _610
REMARK  235  A    between atoms: _610  and  _611
REMARK  236  A    between atoms: _614  and  _615
REMARK  237  A    between atoms: _620  and  _622
REMARK  238  A    between atoms: _622  and  _623
REMARK  239  A    between atoms: _622  and  _625
REMARK  240  A    between atoms: _625  and  _626
REMARK  241  A    between atoms: _629  and  _631
REMARK  242  A    between atoms: _631  and  _632
REMARK  243  A    between atoms: _631  and  _634
REMARK  244  A    between atoms: _634  and  _635
REMARK  245  A    between atoms: _645  and  _647
REMARK  246  A    between atoms: _647  and  _648
REMARK  247  A    between atoms: _647  and  _650
REMARK  248  A    between atoms: _650  and  _651
REMARK  249  A    between atoms: _657  and  _658
REMARK  250  A    between atoms: _663  and  _665
REMARK  251  A    between atoms: _665  and  _666
REMARK  252  A    between atoms: _665  and  _668
REMARK  253  A    between atoms: _668  and  _669
REMARK  254  A    between atoms: _672  and  _674
REMARK  255  A    between atoms: _674  and  _675
REMARK  256  A    between atoms: _674  and  _677
REMARK  257  A    between atoms: _677  and  _678
REMARK  258  A    between atoms: _678  and  _679
REMARK  259  A    between atoms: _682  and  _684
REMARK  260  A    between atoms: _684  and  _685
REMARK  261  A    between atoms: _684  and  _687
REMARK  262  A    between atoms: _687  and  _688
REMARK  263  A    between atoms: _688  and  _689
REMARK  264  A    between atoms: _689  and  _690
REMARK  265  A    between atoms: _690  and  _691
REMARK  266  A    between atoms: _695  and  _697
REMARK  267  A    between atoms: _697  and  _698
REMARK  268  A    between atoms: _700  and  _702
REMARK  269  A    between atoms: _702  and  _703
REMARK  270  A    between atoms: _702  and  _705
REMARK  271  A    between atoms: _705  and  _706
REMARK  272  A    between atoms: _711  and  _713
REMARK  273  A    between atoms: _713  and  _714
REMARK  274  A    between atoms: _713  and  _716
REMARK  275  A    between atoms: _716  and  _717
REMARK  276  A    between atoms: _717  and  _718
REMARK  277  A    between atoms: _718  and  _719
REMARK  278  A    between atoms: _728  and  _730
REMARK  279  A    between atoms: _730  and  _731
REMARK  280  A    between atoms: _730  and  _733
REMARK  281  A    between atoms: _733  and  _734
REMARK  282  A    between atoms: _737  and  _739
REMARK  283  A    between atoms: _739  and  _740
REMARK  284  A    between atoms: _739  and  _742
REMARK  285  A    between atoms: _745  and  _747
REMARK  286  A    between atoms: _747  and  _748
REMARK  287  A    between atoms: _747  and  _750
REMARK  288  A    between atoms: _750  and  _751
REMARK  289  A    between atoms: _751  and  _752
REMARK  290  A    between atoms: _758  and  _759
REMARK  291  A    between atoms: _764  and  _766
REMARK  292  A    between atoms: _766  and  _767
REMARK  293  A    between atoms: _766  and  _769
REMARK  294  A    between atoms: _769  and  _770
REMARK  295  A    between atoms: _773  and  _775
REMARK  296  A    between atoms: _775  and  _776
REMARK  297  A    between atoms: _775  and  _778
REMARK  298  A    between atoms: _778  and  _779
REMARK  299  A    between atoms: _782  and  _784
REMARK  300  A    between atoms: _784  and  _785
REMARK  301  A    between atoms: _784  and  _787
REMARK  302  A    between atoms: _787  and  _788
REMARK  303  A    between atoms: _790  and  _792
REMARK  304  A    between atoms: _792  and  _793
REMARK  305  A    between atoms: _792  and  _795
REMARK  306  A    between atoms: _795  and  _796
REMARK  307  A    between atoms: _796  and  _797
REMARK  308  A    between atoms: _797  and  _798
REMARK  309  A    between atoms: _807  and  _809
REMARK  310  A    between atoms: _809  and  _810
REMARK                            x       y       z     vdW  Elec       q    Type
REMARK                         _______ _______ _______ _____ _____    ______ ____
ROOT
ATOM      1  NE  ARG A   1     -25.656 -38.044 -18.786  0.00  0.00    -0.265 N 
ATOM      2  HE  ARG A   1     -26.572 -38.338 -18.391  0.00  0.00    +0.259 HD
ATOM      3  CZ  ARG A   1     -25.658 -37.014 -19.634  0.00  0.00    +0.342 C 
ATOM      4  NH2 ARG A   1     -26.800 -36.413 -19.948  0.00  0.00    -0.292 N 
ATOM      5 HH21 ARG A   1     -27.694 -36.745 -19.533  0.00  0.00    +0.255 HD
ATOM      6 HH22 ARG A   1     -26.800 -35.610 -20.609  0.00  0.00    +0.255 HD
ATOM      7  NH1 ARG A   1     -24.530 -36.583 -20.162  0.00  0.00    -0.292 N 
ATOM      8 HH11 ARG A   1     -23.631 -37.046 -19.918  0.00  0.00    +0.255 HD
ATOM      9 HH12 ARG A   1     -24.539 -35.780 -20.822  0.00  0.00    +0.255 HD
ENDROOT
BRANCH   1  10
ATOM     10  CD  ARG A   1     -24.478 -38.791 -18.367  0.00  0.00    +0.174 C 
BRANCH  10  11
ATOM     11  CG  ARG A   1     -24.880 -39.908 -17.422  0.00  0.00    +0.045 C 
BRANCH  11  12
ATOM     12  CB  ARG A   1     -23.726 -40.704 -16.871  0.00  0.00    +0.029 C 
BRANCH  12  13
ATOM     13  CA  ARG A   1     -24.126 -42.092 -16.395  0.00  0.00    +0.133 C 
BRANCH  13  14
ATOM     14  N   ARG A   1     -25.169 -42.020 -15.399  0.00  0.00    -0.239 NA
ATOM     15  H   ARG A   1     -25.396 -41.117 -14.936  0.00  0.00    +0.142 HD
ENDBRANCH  13  14
BRANCH  13  16
ATOM     16  C   ARG A   1     -22.914 -42.822 -15.835  0.00  0.00    +0.224 C 
ATOM     17  O   ARG A   1     -22.038 -43.186 -16.600  0.00  0.00    -0.287 OA
ENDBRANCH  13  16
ENDBRANCH  12  13
ENDBRANCH  11  12
ENDBRANCH  10  11
ENDBRANCH   1  10
TORSDOF 6
REMARK  Name = ../refined-set-2016/3rt4/3rt4_pocket.pdb
REMARK  310 active torsions:
REMARK  status: ('A' for Active; 'I' for Inactive)
REMARK    1  A    between atoms: _1  and  _3
REMARK    2  A    between atoms: _3  and  _4
REMARK    3  A    between atoms: _3  and  _6
REMARK    4  A    between atoms: _6  and  _7
REMARK    5  A    between atoms: _7  and  _8
REMARK    6  A    between atoms: _8  and  _9
REMARK    7  A    between atoms: _18  and  _20
REMARK    8  A    between atoms: _20  and  _21
REMARK    9  A    between atoms: _20  and  _23
REMARK   10  A    between atoms: _26  and  _28
REMARK   11  A    between atoms: _28  and  _29
REMARK   12  A    between atoms: _28  and  _31
REMARK   13  A    between atoms: _31  and  _32
REMARK   14  A    between atoms: _32  and  _33
REMARK   15  A    between atoms: _33  and  _34
REMARK   16  A    between atoms: _43  and  _45
REMARK   17  A    between atoms: _45  and  _46
REMARK   18  A    between atoms: _45  and  _48
REMARK   19  A    between atoms: _48  and  _49
REMARK   20  A    between atoms: _51  and  _53
REMARK   21  A    between atoms: _53  and  _54
REMARK   22  A    between atoms: _53  and  _56
REMARK   23  A    between atoms: _56  and  _57
REMARK   24  A    between atoms: _62  and  _64
REMARK   25  A    between atoms: _64  and  _65
REMARK   26  A    between atoms: _64  and  _67
REMARK   27  A    between atoms: _67  and  _68
REMARK   28  A    between atoms: _73  and  _74
REMARK   29  A    between atoms: _76  and  _78
REMARK   30  A    between atoms: _78  and  _79
REMARK   31  A    between atoms: _78  and  _81
REMARK   32  A    between atoms: _81  and  _82
REMARK   33  A    between atoms: _82  and  _83
REMARK   34  A    between atoms: _86  and  _88
REMARK   35  A    between atoms: _88  and  _89
REMARK   36  A    between atoms: _88  and  _91
REMARK   37  A    between atoms: _91  and  _92
REMARK   38  A    between atoms: _92  and  _93
REMARK   39  A    between atoms: _93  and  _94
REMARK   40  A    between atoms: _94  and  _95
REMARK   41  A    between atoms: _99  and  _101
REMARK   42  A    between atoms: _101  and  _102
REMARK   43  A    between atoms: _101  and  _104
REMARK   44  A    between atoms: _104  and  _105
REMARK   45  A    between atoms: _110  and  _111
REMARK   46  A    between atoms: _113  and  _115
REMARK   47  A    between atoms: _115  and  _116
REMARK   48  A    between atoms: _115  and  _118
REMARK   49  A    between atoms: _118  and  _119
REMARK   50  A    between atoms: _119  and  _120
REMARK   51  A    between atoms: _120  and  _121
REMARK   52  A    between atoms: _130  and  _132
REMARK   53  A    between atoms: _132  and  _133
REMARK   54  A    between atoms: _136  and  _138
REMARK   55  A    between atoms: _138  and  _139
REMARK   56  A    between atoms: _138  and  _141
REMARK   57  A    between atoms: _141  and  _142
REMARK   58  A    between atoms: _142  and  _258
REMARK   59  A    between atoms: _143  and  _145
REMARK   60  A    between atoms: _145  and  _146
REMARK   61  A    between atoms: _145  and  _148
REMARK   62  A    between atoms: _148  and  _149
REMARK   63  A    between atoms: _149  and  _150
REMARK   64  A    between atoms: _153  and  _155
REMARK   65  A    between atoms: _155  and  _156
REMARK   66  A    between atoms: _155  and  _158
REMARK   67  A    between atoms: _158  and  _159
REMARK   68  A    between atoms: _161  and  _163
REMARK   69  A    between atoms: _163  and  _164
REMARK   70  A    between atoms: _163  and  _166
REMARK   71  A    between atoms: _166  and  _167
REMARK   72  A    between atoms: _172  and  _173
REMARK   73  A    between atoms: _175  and  _177
REMARK   74  A    between atoms: _177  and  _178
REMARK   75  A    between atoms: _177  and  _180
REMARK   76  A    between atoms: _180  and  _181
REMARK   77  A    between atoms: _186  and  _188
REMARK   78  A    between atoms: _188  and  _189
REMARK   79  A    between atoms: _188  and  _191
REMARK   80  A    between atoms: _194  and  _196
REMARK   81  A    between atoms: _196  and  _197
REMARK   82  A    between atoms: _196  and  _199
REMARK   83  A    between atoms: _199  and  _200
REMARK   84  A    between atoms: _200  and  _201
REMARK   85  A    between atoms: _201  and  _202
REMARK   86  A    between atoms: _211  and  _213
REMARK   87  A    between atoms: _213  and  _214
REMARK   88  A    between atoms: _213  and  _216
REMARK   89  A    between atoms: _216  and  _217
REMARK   90  A    between atoms: _222  and  _224
REMARK   91  A    between atoms: _224  and  _225
REMARK   92  A    between atoms: _224  and  _227
REMARK   93  A    between atoms: _227  and  _228
REMARK   94  A    between atoms: _231  and  _233
REMARK   95  A    between atoms: _233  and  _234
REMARK   96  A    between atoms: _236  and  _238
REMARK   97  A    between atoms: _238  and  _239
REMARK   98  A    between atoms: _238  and  _241
REMARK   99  A    between atoms: _241  and  _242
REMARK  100  A    between atoms: _252  and  _254
REMARK  101  A    between atoms: _254  and  _255
REMARK  102  A    between atoms: _254  and  _257
REMARK  103  A    between atoms: _257  and  _258
REMARK  104  A    between atoms: _259  and  _261
REMARK  105  A    between atoms: _261  and  _262
REMARK  106  A    between atoms: _261  and  _264
REMARK  107  A    between atoms: _264  and  _265
REMARK  108  A    between atoms: _268  and  _270
REMARK  109  A    between atoms: _270  and  _271
REMARK  110  A    between atoms: _273  and  _275
REMARK  111  A    between atoms: _275  and  _276
REMARK  112  A    between atoms: _275  and  _278
REMARK  113  A    between atoms: _278  and  _279
REMARK  114  A    between atoms: _284  and  _285
REMARK  115  A    between atoms: _287  and  _289
REMARK  116  A    between atoms: _289  and  _290
REMARK  117  A    between atoms: _289  and  _292
REMARK  118  A    between atoms: _292  and  _293
REMARK  119  A    between atoms: _293  and  _294
REMARK  120  A    between atoms: _294  and  _295
REMARK  121  A    between atoms: _304  and  _306
REMARK  122  A    between atoms: _306  and  _307
REMARK  123  A    between atoms: _306  and  _309
REMARK  124  A    between atoms: _309  and  _310
REMARK  125  A    between atoms: _310  and  _311
REMARK  126  A    between atoms: _311  and  _312
REMARK  127  A    between atoms: _312  and  _313
REMARK  128  A    between atoms: _317  and  _319
REMARK  129  A    between atoms: _319  and  _320
REMARK  130  A    between atoms: _322  and  _324
REMARK  131  A    between atoms: _324  and  _325
REMARK  132  A    between atoms: _328  and  _330
REMARK  133  A    between atoms: _330  and  _331
REMARK  134  A    between atoms: _330  and  _333
REMARK  135  A    between atoms: _333  and  _334
REMARK  136  A    between atoms: _339  and  _341
REMARK  137  A    between atoms: _341  and  _342
REMARK  138  A    between atoms: _345  and  _347
REMARK  139  A    between atoms: _347  and  _348
REMARK  140  A    between atoms: _351  and  _352
REMARK  141  A    between atoms: _357  and  _359
REMARK  142  A    between atoms: _359  and  _360
REMARK  143  A    between atoms: _359  and  _362
REMARK  144  A    between atoms: _362  and  _363
REMARK  145  A    between atoms: _366  and  _368
REMARK  146  A    between atoms: _368  and  _369
REMARK  147  A    between atoms: _368  and  _371
REMARK  148  A    between atoms: _371  and  _372
REMARK  149  A    between atoms: _382  and  _384
REMARK  150  A    between atoms: _384  and  _385
REMARK  151  A    between atoms: _384  and  _387
REMARK  152  A    between atoms: _387  and  _388
REMARK  153  A    between atoms: _394  and  _395
REMARK  154  A    between atoms: _400  and  _402
REMARK  155  A    between atoms: _402  and  _403
REMARK  156  A    between atoms: _402  and  _405
REMARK  157  A    between atoms: _405  and  _406
REMARK  158  A    between atoms: _409  and  _411
REMARK  159  A    between atoms: _411  and  _412
REMARK  160  A    between atoms: _411  and  _414
REMARK  161  A    between atoms: _414  and  _415
REMARK  162  A    between atoms: _417  and  _419
REMARK  163  A    between atoms: _419  and  _420
REMARK  164  A    between atoms: _419  and  _422
REMARK  165  A    between atoms: _422  and  _423
REMARK  166  A    between atoms: _428  and  _430
REMARK  167  A    between atoms: _430  and  _431
REMARK  168  A    between atoms: _430  and  _433
REMARK  169  A    between atoms: _436  and  _438
REMARK  170  A    between atoms: _438  and  _439
REMARK  171  A    between atoms: _438  and  _441
REMARK  172  A    between atoms: _441  and  _442
REMARK  173  A    between atoms: _442  and  _443
REMARK  174  A    between atoms: _449  and  _450
REMARK  175  A    between atoms: _455  and  _457
REMARK  176  A    between atoms: _457  and  _458
REMARK  177  A    between atoms: _457  and  _460
REMARK  178  A    between atoms: _460  and  _461
REMARK  179  A    between atoms: _464  and  _466
REMARK  180  A    between atoms: _466  and  _467
REMARK  181  A    between atoms: _466  and  _469
REMARK  182  A    between atoms: _469  and  _470
REMARK  183  A    between atoms: _473  and  _475
REMARK  184  A    between atoms: _475  and  _476
REMARK  185  A    between atoms: _475  and  _478
REMARK  186  A    between atoms: _478  and  _479
REMARK  187  A    between atoms: _481  and  _483
REMARK  188  A    between atoms: _483  and  _484
REMARK  189  A    between atoms: _483  and  _486
REMARK  190  A    between atoms: _486  and  _487
REMARK  191  A    between atoms: _492  and  _493
REMARK  192  A    between atoms: _495  and  _497
REMARK  193  A    between atoms: _497  and  _498
REMARK  194  A    between atoms: _497  and  _500
REMARK  195  A    between atoms: _500  and  _501
REMARK  196  A    between atoms: _506  and  _508
REMARK  197  A    between atoms: _508  and  _509
REMARK  198  A    between atoms: _508  and  _511
REMARK  199  A    between atoms: _511  and  _512
REMARK  200  A    between atoms: _515  and  _517
REMARK  201  A    between atoms: _517  and  _518
REMARK  202  A    between atoms: _517  and  _520
REMARK  203  A    between atoms: _520  and  _521
REMARK  204  A    between atoms: _531  and  _533
REMARK  205  A    between atoms: _533  and  _534
REMARK  206  A    between atoms: _536  and  _538
REMARK  207  A    between atoms: _538  and  _539
REMARK  208  A    between atoms: _538  and  _541
REMARK  209  A    between atoms: _541  and  _542
REMARK  210  A    between atoms: _547  and  _548
REMARK  211  A    between atoms: _550  and  _552
REMARK  212  A    between atoms: _552  and  _553
REMARK  213  A    between atoms: _552  and  _555
REMARK  214  A    between atoms: _555  and  _556
REMARK  215  A    between atoms: _556  and  _557
REMARK  216  A    between atoms: _557  and  _558
REMARK  217  A    between atoms: _567  and  _569
REMARK  218  A    between atoms: _569  and  _570
REMARK  219  A    between atoms: _569  and  _572
REMARK  220  A    between atoms: _572  and  _573
REMARK  221  A    between atoms: _573  and  _574
REMARK  222  A    between atoms: _574  and  _575
REMARK  223  A    between atoms: _575  and  _576
REMARK  224  A    between atoms: _580  and  _582
REMARK  225  A    between atoms: _582  and  _583
REMARK  226  A    between atoms: _585  and  _587
REMARK  227  A    between atoms: _587  and  _588
REMARK  228  A    between atoms: _591  and  _593
REMARK  229  A    between atoms: _593  and  _594
REMARK  230  A    between atoms: _593  and  _596
REMARK  231  A    between atoms: _596  and  _597
REMARK  232  A    between atoms: _602  and  _604
REMARK  233  A    between atoms: _604  and  _605
REMARK  234  A    between atoms: _608  and  _610
REMARK  235  A    between atoms: _610  and  _611
REMARK  236  A    between atoms: _614  and  _615
REMARK  237  A    between atoms: _620  and  _622
REMARK  238  A    between atoms: _622  and  _623
REMARK  239  A    between atoms: _622  and  _625
REMARK  240  A    between atoms: _625  and  _626
REMARK  241  A    between atoms: _629  and  _631
REMARK  242  A    between atoms: _631  and  _632
REMARK  243  A    between atoms: _631  and  _634
REMARK  244  A    between atoms: _634  and  _635
REMARK  245  A    between atoms: _645  and  _647
REMARK  246  A    between atoms: _647  and  _648
REMARK  247  A    between atoms: _647  and  _650
REMARK  248  A    between atoms: _650  and  _651
REMARK  249  A    between atoms: _657  and  _658
REMARK  250  A    between atoms: _663  and  _665
REMARK  251  A    between atoms: _665  and  _666
REMARK  252  A    between atoms: _665  and  _668
REMARK  253  A    between atoms: _668  and  _669
REMARK  254  A    between atoms: _672  and  _674
REMARK  255  A    between atoms: _674  and  _675
REMARK  256  A    between atoms: _674  and  _677
REMARK  257  A    between atoms: _677  and  _678
REMARK  258  A    between atoms: _678  and  _679
REMARK  259  A    between atoms: _682  and  _684
REMARK  260  A    between atoms: _684  and  _685
REMARK  261  A    between atoms: _684  and  _687
REMARK  262  A    between atoms: _687  and  _688
REMARK  263  A    between atoms: _688  and  _689
REMARK  264  A    between atoms: _689  and  _690
REMARK  265  A    between atoms: _690  and  _691
REMARK  266  A    between atoms: _695  and  _697
REMARK  267  A    between atoms: _697  and  _698
REMARK  268  A    between atoms: _700  and  _702
REMARK  269  A    between atoms: _702  and  _703
REMARK  270  A    between atoms: _702  and  _705
REMARK  271  A    between atoms: _705  and  _706
REMARK  272  A    between atoms: _711  and  _713
REMARK  273  A    between atoms: _713  and  _714
REMARK  274  A    between atoms: _713  and  _716
REMARK  275  A    between atoms: _716  and  _717
REMARK  276  A    between atoms: _717  and  _718
REMARK  277  A    between atoms: _718  and  _719
REMARK  278  A    between atoms: _728  and  _730
REMARK  279  A    between atoms: _730  and  _731
REMARK  280  A    between atoms: _730  and  _733
REMARK  281  A    between atoms: _733  and  _734
REMARK  282  A    between atoms: _737  and  _739
REMARK  283  A    between atoms: _739  and  _740
REMARK  284  A    between atoms: _739  and  _742
REMARK  285  A    between atoms: _745  and  _747
REMARK  286  A    between atoms: _747  and  _748
REMARK  287  A    between atoms: _747  and  _750
REMARK  288  A    between atoms: _750  and  _751
REMARK  289  A    between atoms: _751  and  _752
REMARK  290  A    between atoms: _758  and  _759
REMARK  291  A    between atoms: _764  and  _766
REMARK  292  A    between atoms: _766  and  _767
REMARK  293  A    between atoms: _766  and  _769
REMARK  294  A    between atoms: _769  and  _770
REMARK  295  A    between atoms: _773  and  _775
REMARK  296  A    between atoms: _775  and  _776
REMARK  297  A    between atoms: _775  and  _778
REMARK  298  A    between atoms: _778  and  _779
REMARK  299  A    between atoms: _782  and  _784
REMARK  300  A    between atoms: _784  and  _785
REMARK  301  A    between atoms: _784  and  _787
REMARK  302  A    between atoms: _787  and  _788
REMARK  303  A    between atoms: _790  and  _792
REMARK  304  A    between atoms: _792  and  _793
REMARK  305  A    between atoms: _792  and  _795
REMARK  306  A    between atoms: _795  and  _796
REMARK  307  A    between atoms: _796  and  _797
REMARK  308  A    between atoms: _797  and  _798
REMARK  309  A    between atoms: _807  and  _809
REMARK  310  A    between atoms: _809  and  _810
REMARK                            x       y       z     vdW  Elec       q    Type
REMARK                         _______ _______ _______ _____ _____    ______ ____
ROOT
ATOM      1  CA  THR A   8     -17.478 -25.711 -16.473  0.00  0.00    +0.176 C 
ENDROOT
BRANCH   1   2
ATOM      2  C   THR A   8     -17.281 -26.901 -15.552  0.00  0.00    +0.243 C 
ATOM      3  N   TRP A   9     -18.358 -27.266 -14.870  0.00  0.00    -0.297 N 
ATOM      4  H   TRP A   9     -19.260 -26.775 -15.031  0.00  0.00    +0.150 HD
ATOM      5  O   THR A   8     -16.191 -27.484 -15.487  0.00  0.00    -0.273 OA
BRANCH   3   6
ATOM      6  CA  TRP A   9     -18.291 -28.339 -13.905  0.00  0.00    +0.153 C 
BRANCH   6   7
ATOM      7  C   TRP A   9     -18.554 -29.748 -14.383  0.00  0.00    +0.241 C 
ATOM      8  O   TRP A   9     -17.994 -30.690 -13.843  0.00  0.00    -0.273 OA
ATOM      9  N   ASN A  10     -19.354 -29.909 -15.419  0.00  0.00    -0.297 N 
ATOM     10  H   ASN A  10     -19.793 -29.087 -15.880  0.00  0.00    +0.150 HD
BRANCH   9  11
ATOM     11  CA  ASN A  10     -19.613 -31.253 -15.906  0.00  0.00    +0.158 C 
BRANCH  11  12
ATOM     12  C   ASN A  10     -18.371 -32.070 -16.301  0.00  0.00    +0.248 C 
ATOM     13  O   ASN A  10     -18.289 -33.250 -15.981  0.00  0.00    -0.273 OA
ATOM     14  N   PRO A  11     -17.400 -31.465 -17.010  0.00  0.00    -0.249 N 
ATOM     15  CA  PRO A  11     -16.196 -32.215 -17.417  0.00  0.00    +0.160 C 
ATOM     16  CB  PRO A  11     -15.442 -31.269 -18.348  0.00  0.00    +0.057 C 
ATOM     17  CG  PRO A  11     -16.229 -29.993 -18.422  0.00  0.00    -0.008 C 
ATOM     18  CD  PRO A  11     -17.468 -30.113 -17.592  0.00  0.00    +0.063 C 
BRANCH  15  19
ATOM     19  C   PRO A  11     -15.263 -32.636 -16.304  0.00  0.00    +0.242 C 
ATOM     20  N   ILE A  12     -15.428 -32.045 -15.135  0.00  0.00    -0.297 N 
ATOM     21  H   ILE A  12     -16.223 -31.387 -15.003  0.00  0.00    +0.150 HD
ATOM     22  O   PRO A  11     -14.405 -33.490 -16.505  0.00  0.00    -0.273 OA
BRANCH  20  23
ATOM     23  CA  ILE A  12     -14.516 -32.298 -14.025  0.00  0.00    +0.149 C 
BRANCH  23  24
ATOM     24  C   ILE A  12     -15.157 -32.786 -12.731  0.00  0.00    +0.241 C 
ATOM     25  O   ILE A  12     -14.502 -32.807 -11.705  0.00  0.00    -0.273 OA
ATOM     26  N   SER A  13     -16.403 -33.194 -12.821  0.00  0.00    -0.296 N 
ATOM     27  H   SER A  13     -16.875 -33.196 -13.747  0.00  0.00    +0.150 HD
BRANCH  26  28
ATOM     28  CA  SER A  13     -17.135 -33.645 -11.639  0.00  0.00    +0.166 C 
BRANCH  28  29
ATOM     29  CB  SER A  13     -17.997 -34.883 -11.860  0.00  0.00    +0.229 C 
ATOM     30  OG  SER A  13     -18.359 -35.219 -12.992  0.00  0.00    -0.286 OA
ENDBRANCH  28  29
BRANCH  28  31
ATOM     31  C   SER A  13     -17.999 -32.512 -11.076  0.00  0.00    +0.165 C 
BRANCH  31  32
ATOM     32  O   SER A  13     -19.061 -32.189 -11.957  0.00  0.00    -0.380 OA
ATOM     33  H   SER A  13     -18.689 -31.900 -12.828  0.00  0.00    +0.211 HD
ENDBRANCH  31  32
ENDBRANCH  28  31
ENDBRANCH  26  28
ENDBRANCH  23  24
BRANCH  23  34
ATOM     34  CB  ILE A  12     -13.680 -30.972 -13.709  0.00  0.00    +0.027 C 
ATOM     35  CG2 ILE A  12     -12.838 -30.540 -14.937  0.00  0.00    +0.002 C 
BRANCH  34  36
ATOM     36  CG1 ILE A  12     -14.635 -29.822 -13.352  0.00  0.00    +0.002 C 
ATOM     37  CD1 ILE A  12     -13.927 -28.544 -12.893  0.00  0.00    +0.000 C 
ENDBRANCH  34  36
ENDBRANCH  23  34
ENDBRANCH  20  23
ENDBRANCH  15  19
ENDBRANCH  11  12
BRANCH  11  38
ATOM     38  CB  ASN A  10     -20.575 -31.222 -17.082  0.00  0.00    +0.114 C 
BRANCH  38  39
ATOM     39  CG  ASN A  10     -21.987 -30.878 -16.675  0.00  0.00    +0.222 C 
ATOM     40  OD1 ASN A  10     -22.423 -31.155 -15.550  0.00  0.00    -0.275 OA
ATOM     41  ND2 ASN A  10     -22.713 -30.294 -17.601  0.00  0.00    -0.329 N 
ATOM     42 HD21 ASN A  10     -23.703 -30.043 -17.404  0.00  0.00    +0.145 HD
ATOM     43 HD22 ASN A  10     -22.298 -30.083 -18.531  0.00  0.00    +0.145 HD
ENDBRANCH  38  39
ENDBRANCH  11  38
ENDBRANCH   9  11
ENDBRANCH   6   7
BRANCH   6  44
ATOM     44  CB  TRP A   9     -19.158 -27.976 -12.702  0.00  0.00    +0.057 C 
BRANCH  44  45
ATOM     45  CG  TRP A   9     -18.583 -26.794 -11.976  0.00  0.00    -0.002 A 
ATOM     46  CD2 TRP A   9     -17.517 -26.806 -11.010  0.00  0.00    +0.013 A 
ATOM     47  CE3 TRP A   9     -16.752 -27.821 -10.410  0.00  0.00    +0.001 A 
ATOM     48  CZ3 TRP A   9     -15.754 -27.457  -9.489  0.00  0.00    +0.000 A 
ATOM     49  CH2 TRP A   9     -15.508 -26.105  -9.185  0.00  0.00    +0.001 A 
ATOM     50  CZ2 TRP A   9     -16.242 -25.099  -9.764  0.00  0.00    +0.017 A 
ATOM     51  CE2 TRP A   9     -17.235 -25.462 -10.687  0.00  0.00    +0.056 A 
ATOM     52  NE1 TRP A   9     -18.104 -24.682 -11.403  0.00  0.00    -0.352 N 
ATOM     53  HE1 TRP A   9     -18.148 -23.643 -11.369  0.00  0.00    +0.166 HD
ATOM     54  CD1 TRP A   9     -18.905 -25.482 -12.169  0.00  0.00    +0.068 A 
ENDBRANCH  44  45
ENDBRANCH   6  44
ENDBRANCH   3   6
ENDBRANCH   1   2
BRANCH   1  56
ATOM     55  C   PRO A   7     -18.829 -26.514 -18.262  0.00  0.00    +0.241 C 
ATOM     56  N   THR A   8     -18.718 -25.795 -17.174  0.00  0.00    -0.295 N 
ATOM     57  H   THR A   8     -19.546 -25.277 -16.815  0.00  0.00    +0.150 HD
ATOM     58  O   PRO A   7     -17.915 -27.160 -18.754  0.00  0.00    -0.273 OA
BRANCH  55  65
ATOM     59  C   GLY A   6     -21.749 -27.097 -17.113  0.00  0.00    +0.246 C 
ATOM     60  O   GLY A   6     -21.023 -27.983 -16.650  0.00  0.00    -0.273 OA
ATOM     61  N   PRO A   7     -21.396 -26.315 -18.157  0.00  0.00    -0.272 N 
ATOM     62  CD  PRO A   7     -21.958 -25.002 -18.486  0.00  0.00    +0.094 C 
ATOM     63  CG  PRO A   7     -20.899 -24.390 -19.421  0.00  0.00    +0.024 C 
ATOM     64  CB  PRO A   7     -20.281 -25.560 -20.053  0.00  0.00    +0.031 C 
ATOM     65  CA  PRO A   7     -20.188 -26.567 -18.932  0.00  0.00    +0.152 C 
BRANCH  59  66
ATOM     66  CA  GLY A   6     -23.030 -26.753 -16.432  0.00  0.00    +0.176 C 
BRANCH  66  69
ATOM     67  C   ALA A   5     -23.200 -27.564 -14.200  0.00  0.00    +0.241 C 
ATOM     68  O   ALA A   5     -22.498 -26.646 -13.773  0.00  0.00    -0.273 OA
ATOM     69  N   GLY A   6     -23.462 -27.726 -15.477  0.00  0.00    -0.295 N 
ATOM     70  H   GLY A   6     -23.986 -28.566 -15.795  0.00  0.00    +0.150 HD
BRANCH  67  71
ATOM     71  CA  ALA A   5     -23.767 -28.617 -13.264  0.00  0.00    +0.149 C 
ATOM     72  CB  ALA A   5     -22.701 -29.096 -12.248  0.00  0.00    +0.031 C 
BRANCH  71  75
ATOM     73  C   HIS A   4     -25.437 -30.359 -13.464  0.00  0.00    +0.241 C 
ATOM     74  O   HIS A   4     -26.086 -29.886 -12.551  0.00  0.00    -0.273 OA
ATOM     75  N   ALA A   5     -24.322 -29.794 -13.916  0.00  0.00    -0.297 N 
ATOM     76  H   ALA A   5     -23.841 -30.198 -14.745  0.00  0.00    +0.150 HD
BRANCH  73  77
ATOM     77  CA  HIS A   4     -25.911 -31.640 -14.119  0.00  0.00    +0.155 C 
BRANCH  77  79
ATOM     78  C   ALA A   3     -25.973 -32.635 -16.252  0.00  0.00    +0.241 C 
ATOM     79  N   HIS A   4     -25.263 -31.998 -15.369  0.00  0.00    -0.297 N 
ATOM     80  H   HIS A   4     -24.269 -31.754 -15.551  0.00  0.00    +0.150 HD
ATOM     81  O   ALA A   3     -27.164 -32.911 -16.082  0.00  0.00    -0.273 OA
BRANCH  78  82
ATOM     82  CA  ALA A   3     -25.231 -33.114 -17.486  0.00  0.00    +0.149 C 
ATOM     83  CB  ALA A   3     -26.200 -33.532 -18.549  0.00  0.00    +0.031 C 
BRANCH  82  85
ATOM     84  C   GLY A   2     -23.280 -34.583 -17.374  0.00  0.00    +0.243 C 
ATOM     85  N   ALA A   3     -24.492 -34.276 -17.010  0.00  0.00    -0.297 N 
ATOM     86  H   ALA A   3     -24.966 -34.905 -16.331  0.00  0.00    +0.150 HD
ATOM     87  O   GLY A   2     -22.482 -33.830 -17.928  0.00  0.00    -0.273 OA
BRANCH  84  88
ATOM     88  CA  GLY A   2     -22.848 -35.949 -16.883  0.00  0.00    +0.176 C 
BRANCH  88  90
ATOM     89  C   LYS A   1     -21.057 -36.731 -18.262  0.00  0.00    +0.238 C 
ATOM     90  N   GLY A   2     -21.439 -36.175 -17.122  0.00  0.00    -0.296 N 
ATOM     91  H   GLY A   2     -20.734 -35.904 -16.407  0.00  0.00    +0.150 HD
ATOM     92  O   LYS A   1     -21.841 -37.056 -19.137  0.00  0.00    -0.274 OA
BRANCH  89  93
ATOM     93  CA  LYS A   1     -19.575 -36.943 -18.457  0.00  0.00    +0.145 C 
BRANCH  93  94
ATOM     94  N   LYS A   1     -19.263 -38.273 -18.902  0.00  0.00    -0.238 NA
ATOM     95  H   LYS A   1     -18.794 -38.426 -19.818  0.00  0.00    +0.142 HD
ENDBRANCH  93  94
BRANCH  93  96
ATOM     96  CB  LYS A   1     -19.040 -35.927 -19.446  0.00  0.00    +0.026 C 
BRANCH  96  97
ATOM     97  CG  LYS A   1     -19.150 -34.539 -18.933  0.00  0.00    -0.000 C 
BRANCH  97  98
ATOM     98  CD  LYS A   1     -18.502 -33.581 -19.884  0.00  0.00    -0.024 C 
BRANCH  98  99
ATOM     99  CE  LYS A   1     -18.940 -33.854 -21.307  0.00  0.00    -0.086 C 
BRANCH  99 100
ATOM    100  NZ  LYS A   1     -20.334 -33.398 -21.525  0.00  0.00    +0.380 N 
ATOM    101  HZ1 LYS A   1     -20.969 -33.904 -20.875  0.00  0.00    -0.089 HD
ATOM    102  HZ2 LYS A   1     -20.395 -32.376 -21.345  0.00  0.00    -0.089 HD
ATOM    103  HZ3 LYS A   1     -20.612 -33.595 -22.507  0.00  0.00    -0.089 HD
ENDBRANCH  99 100
ENDBRANCH  98  99
ENDBRANCH  97  98
ENDBRANCH  96  97
ENDBRANCH  93  96
ENDBRANCH  89  93
ENDBRANCH  88  90
ENDBRANCH  84  88
ENDBRANCH  82  85
ENDBRANCH  78  82
ENDBRANCH  77  79
BRANCH  77 104
ATOM    104  CB  HIS A   4     -25.698 -32.794 -13.137  0.00  0.00    +0.076 C 
BRANCH 104 105
ATOM    105  CG  HIS A   4     -24.251 -33.174 -12.989  0.00  0.00    +0.082 A 
ATOM    106  ND1 HIS A   4     -23.362 -32.462 -12.210  0.00  0.00    -0.227 NA
ATOM    107  CE1 HIS A   4     -22.138 -32.934 -12.392  0.00  0.00    +0.199 A 
ATOM    108  NE2 HIS A   4     -22.205 -33.937 -13.248  0.00  0.00    -0.221 NA
ATOM    109  CD2 HIS A   4     -23.515 -34.114 -13.630  0.00  0.00    +0.115 A 
ENDBRANCH 104 105
ENDBRANCH  77 104
ENDBRANCH  73  77
ENDBRANCH  71  75
ENDBRANCH  67  71
ENDBRANCH  66  69
ENDBRANCH  59  66
ENDBRANCH  55  65
ENDBRANCH   1  56
BRANCH   1 110
ATOM    110  CB  THR A   8     -17.464 -24.419 -15.637  0.00  0.00    +0.137 C 
ATOM    111  CG2 THR A   8     -16.263 -24.370 -14.687  0.00  0.00    +0.034 C 
BRANCH 110 112
ATOM    112  OG1 THR A   8     -17.442 -23.306 -16.530  0.00  0.00    -0.382 OA
ATOM    113  HG1 THR A   8     -17.433 -22.465 -16.007  0.00  0.00    +0.210 HD
ENDBRANCH 110 112
ENDBRANCH   1 110
TORSDOF 41
REMARK  Name = ../refined-set-2016/3rt4/3rt4_pocket.pdb
REMARK  310 active torsions:
REMARK  status: ('A' for Active; 'I' for Inactive)
REMARK    1  A    between atoms: _1  and  _3
REMARK    2  A    between atoms: _3  and  _4
REMARK    3  A    between atoms: _3  and  _6
REMARK    4  A    between atoms: _6  and  _7
REMARK    5  A    between atoms: _7  and  _8
REMARK    6  A    between atoms: _8  and  _9
REMARK    7  A    between atoms: _18  and  _20
REMARK    8  A    between atoms: _20  and  _21
REMARK    9  A    between atoms: _20  and  _23
REMARK   10  A    between atoms: _26  and  _28
REMARK   11  A    between atoms: _28  and  _29
REMARK   12  A    between atoms: _28  and  _31
REMARK   13  A    between atoms: _31  and  _32
REMARK   14  A    between atoms: _32  and  _33
REMARK   15  A    between atoms: _33  and  _34
REMARK   16  A    between atoms: _43  and  _45
REMARK   17  A    between atoms: _45  and  _46
REMARK   18  A    between atoms: _45  and  _48
REMARK   19  A    between atoms: _48  and  _49
REMARK   20  A    between atoms: _51  and  _53
REMARK   21  A    between atoms: _53  and  _54
REMARK   22  A    between atoms: _53  and  _56
REMARK   23  A    between atoms: _56  and  _57
REMARK   24  A    between atoms: _62  and  _64
REMARK   25  A    between atoms: _64  and  _65
REMARK   26  A    between atoms: _64  and  _67
REMARK   27  A    between atoms: _67  and  _68
REMARK   28  A    between atoms: _73  and  _74
REMARK   29  A    between atoms: _76  and  _78
REMARK   30  A    between atoms: _78  and  _79
REMARK   31  A    between atoms: _78  and  _81
REMARK   32  A    between atoms: _81  and  _82
REMARK   33  A    between atoms: _82  and  _83
REMARK   34  A    between atoms: _86  and  _88
REMARK   35  A    between atoms: _88  and  _89
REMARK   36  A    between atoms: _88  and  _91
REMARK   37  A    between atoms: _91  and  _92
REMARK   38  A    between atoms: _92  and  _93
REMARK   39  A    between atoms: _93  and  _94
REMARK   40  A    between atoms: _94  and  _95
REMARK   41  A    between atoms: _99  and  _101
REMARK   42  A    between atoms: _101  and  _102
REMARK   43  A    between atoms: _101  and  _104
REMARK   44  A    between atoms: _104  and  _105
REMARK   45  A    between atoms: _110  and  _111
REMARK   46  A    between atoms: _113  and  _115
REMARK   47  A    between atoms: _115  and  _116
REMARK   48  A    between atoms: _115  and  _118
REMARK   49  A    between atoms: _118  and  _119
REMARK   50  A    between atoms: _119  and  _120
REMARK   51  A    between atoms: _120  and  _121
REMARK   52  A    between atoms: _130  and  _132
REMARK   53  A    between atoms: _132  and  _133
REMARK   54  A    between atoms: _136  and  _138
REMARK   55  A    between atoms: _138  and  _139
REMARK   56  A    between atoms: _138  and  _141
REMARK   57  A    between atoms: _141  and  _142
REMARK   58  A    between atoms: _142  and  _258
REMARK   59  A    between atoms: _143  and  _145
REMARK   60  A    between atoms: _145  and  _146
REMARK   61  A    between atoms: _145  and  _148
REMARK   62  A    between atoms: _148  and  _149
REMARK   63  A    between atoms: _149  and  _150
REMARK   64  A    between atoms: _153  and  _155
REMARK   65  A    between atoms: _155  and  _156
REMARK   66  A    between atoms: _155  and  _158
REMARK   67  A    between atoms: _158  and  _159
REMARK   68  A    between atoms: _161  and  _163
REMARK   69  A    between atoms: _163  and  _164
REMARK   70  A    between atoms: _163  and  _166
REMARK   71  A    between atoms: _166  and  _167
REMARK   72  A    between atoms: _172  and  _173
REMARK   73  A    between atoms: _175  and  _177
REMARK   74  A    between atoms: _177  and  _178
REMARK   75  A    between atoms: _177  and  _180
REMARK   76  A    between atoms: _180  and  _181
REMARK   77  A    between atoms: _186  and  _188
REMARK   78  A    between atoms: _188  and  _189
REMARK   79  A    between atoms: _188  and  _191
REMARK   80  A    between atoms: _194  and  _196
REMARK   81  A    between atoms: _196  and  _197
REMARK   82  A    between atoms: _196  and  _199
REMARK   83  A    between atoms: _199  and  _200
REMARK   84  A    between atoms: _200  and  _201
REMARK   85  A    between atoms: _201  and  _202
REMARK   86  A    between atoms: _211  and  _213
REMARK   87  A    between atoms: _213  and  _214
REMARK   88  A    between atoms: _213  and  _216
REMARK   89  A    between atoms: _216  and  _217
REMARK   90  A    between atoms: _222  and  _224
REMARK   91  A    between atoms: _224  and  _225
REMARK   92  A    between atoms: _224  and  _227
REMARK   93  A    between atoms: _227  and  _228
REMARK   94  A    between atoms: _231  and  _233
REMARK   95  A    between atoms: _233  and  _234
REMARK   96  A    between atoms: _236  and  _238
REMARK   97  A    between atoms: _238  and  _239
REMARK   98  A    between atoms: _238  and  _241
REMARK   99  A    between atoms: _241  and  _242
REMARK  100  A    between atoms: _252  and  _254
REMARK  101  A    between atoms: _254  and  _255
REMARK  102  A    between atoms: _254  and  _257
REMARK  103  A    between atoms: _257  and  _258
REMARK  104  A    between atoms: _259  and  _261
REMARK  105  A    between atoms: _261  and  _262
REMARK  106  A    between atoms: _261  and  _264
REMARK  107  A    between atoms: _264  and  _265
REMARK  108  A    between atoms: _268  and  _270
REMARK  109  A    between atoms: _270  and  _271
REMARK  110  A    between atoms: _273  and  _275
REMARK  111  A    between atoms: _275  and  _276
REMARK  112  A    between atoms: _275  and  _278
REMARK  113  A    between atoms: _278  and  _279
REMARK  114  A    between atoms: _284  and  _285
REMARK  115  A    between atoms: _287  and  _289
REMARK  116  A    between atoms: _289  and  _290
REMARK  117  A    between atoms: _289  and  _292
REMARK  118  A    between atoms: _292  and  _293
REMARK  119  A    between atoms: _293  and  _294
REMARK  120  A    between atoms: _294  and  _295
REMARK  121  A    between atoms: _304  and  _306
REMARK  122  A    between atoms: _306  and  _307
REMARK  123  A    between atoms: _306  and  _309
REMARK  124  A    between atoms: _309  and  _310
REMARK  125  A    between atoms: _310  and  _311
REMARK  126  A    between atoms: _311  and  _312
REMARK  127  A    between atoms: _312  and  _313
REMARK  128  A    between atoms: _317  and  _319
REMARK  129  A    between atoms: _319  and  _320
REMARK  130  A    between atoms: _322  and  _324
REMARK  131  A    between atoms: _324  and  _325
REMARK  132  A    between atoms: _328  and  _330
REMARK  133  A    between atoms: _330  and  _331
REMARK  134  A    between atoms: _330  and  _333
REMARK  135  A    between atoms: _333  and  _334
REMARK  136  A    between atoms: _339  and  _341
REMARK  137  A    between atoms: _341  and  _342
REMARK  138  A    between atoms: _345  and  _347
REMARK  139  A    between atoms: _347  and  _348
REMARK  140  A    between atoms: _351  and  _352
REMARK  141  A    between atoms: _357  and  _359
REMARK  142  A    between atoms: _359  and  _360
REMARK  143  A    between atoms: _359  and  _362
REMARK  144  A    between atoms: _362  and  _363
REMARK  145  A    between atoms: _366  and  _368
REMARK  146  A    between atoms: _368  and  _369
REMARK  147  A    between atoms: _368  and  _371
REMARK  148  A    between atoms: _371  and  _372
REMARK  149  A    between atoms: _382  and  _384
REMARK  150  A    between atoms: _384  and  _385
REMARK  151  A    between atoms: _384  and  _387
REMARK  152  A    between atoms: _387  and  _388
REMARK  153  A    between atoms: _394  and  _395
REMARK  154  A    between atoms: _400  and  _402
REMARK  155  A    between atoms: _402  and  _403
REMARK  156  A    between atoms: _402  and  _405
REMARK  157  A    between atoms: _405  and  _406
REMARK  158  A    between atoms: _409  and  _411
REMARK  159  A    between atoms: _411  and  _412
REMARK  160  A    between atoms: _411  and  _414
REMARK  161  A    between atoms: _414  and  _415
REMARK  162  A    between atoms: _417  and  _419
REMARK  163  A    between atoms: _419  and  _420
REMARK  164  A    between atoms: _419  and  _422
REMARK  165  A    between atoms: _422  and  _423
REMARK  166  A    between atoms: _428  and  _430
REMARK  167  A    between atoms: _430  and  _431
REMARK  168  A    between atoms: _430  and  _433
REMARK  169  A    between atoms: _436  and  _438
REMARK  170  A    between atoms: _438  and  _439
REMARK  171  A    between atoms: _438  and  _441
REMARK  172  A    between atoms: _441  and  _442
REMARK  173  A    between atoms: _442  and  _443
REMARK  174  A    between atoms: _449  and  _450
REMARK  175  A    between atoms: _455  and  _457
REMARK  176  A    between atoms: _457  and  _458
REMARK  177  A    between atoms: _457  and  _460
REMARK  178  A    between atoms: _460  and  _461
REMARK  179  A    between atoms: _464  and  _466
REMARK  180  A    between atoms: _466  and  _467
REMARK  181  A    between atoms: _466  and  _469
REMARK  182  A    between atoms: _469  and  _470
REMARK  183  A    between atoms: _473  and  _475
REMARK  184  A    between atoms: _475  and  _476
REMARK  185  A    between atoms: _475  and  _478
REMARK  186  A    between atoms: _478  and  _479
REMARK  187  A    between atoms: _481  and  _483
REMARK  188  A    between atoms: _483  and  _484
REMARK  189  A    between atoms: _483  and  _486
REMARK  190  A    between atoms: _486  and  _487
REMARK  191  A    between atoms: _492  and  _493
REMARK  192  A    between atoms: _495  and  _497
REMARK  193  A    between atoms: _497  and  _498
REMARK  194  A    between atoms: _497  and  _500
REMARK  195  A    between atoms: _500  and  _501
REMARK  196  A    between atoms: _506  and  _508
REMARK  197  A    between atoms: _508  and  _509
REMARK  198  A    between atoms: _508  and  _511
REMARK  199  A    between atoms: _511  and  _512
REMARK  200  A    between atoms: _515  and  _517
REMARK  201  A    between atoms: _517  and  _518
REMARK  202  A    between atoms: _517  and  _520
REMARK  203  A    between atoms: _520  and  _521
REMARK  204  A    between atoms: _531  and  _533
REMARK  205  A    between atoms: _533  and  _534
REMARK  206  A    between atoms: _536  and  _538
REMARK  207  A    between atoms: _538  and  _539
REMARK  208  A    between atoms: _538  and  _541
REMARK  209  A    between atoms: _541  and  _542
REMARK  210  A    between atoms: _547  and  _548
REMARK  211  A    between atoms: _550  and  _552
REMARK  212  A    between atoms: _552  and  _553
REMARK  213  A    between atoms: _552  and  _555
REMARK  214  A    between atoms: _555  and  _556
REMARK  215  A    between atoms: _556  and  _557
REMARK  216  A    between atoms: _557  and  _558
REMARK  217  A    between atoms: _567  and  _569
REMARK  218  A    between atoms: _569  and  _570
REMARK  219  A    between atoms: _569  and  _572
REMARK  220  A    between atoms: _572  and  _573
REMARK  221  A    between atoms: _573  and  _574
REMARK  222  A    between atoms: _574  and  _575
REMARK  223  A    between atoms: _575  and  _576
REMARK  224  A    between atoms: _580  and  _582
REMARK  225  A    between atoms: _582  and  _583
REMARK  226  A    between atoms: _585  and  _587
REMARK  227  A    between atoms: _587  and  _588
REMARK  228  A    between atoms: _591  and  _593
REMARK  229  A    between atoms: _593  and  _594
REMARK  230  A    between atoms: _593  and  _596
REMARK  231  A    between atoms: _596  and  _597
REMARK  232  A    between atoms: _602  and  _604
REMARK  233  A    between atoms: _604  and  _605
REMARK  234  A    between atoms: _608  and  _610
REMARK  235  A    between atoms: _610  and  _611
REMARK  236  A    between atoms: _614  and  _615
REMARK  237  A    between atoms: _620  and  _622
REMARK  238  A    between atoms: _622  and  _623
REMARK  239  A    between atoms: _622  and  _625
REMARK  240  A    between atoms: _625  and  _626
REMARK  241  A    between atoms: _629  and  _631
REMARK  242  A    between atoms: _631  and  _632
REMARK  243  A    between atoms: _631  and  _634
REMARK  244  A    between atoms: _634  and  _635
REMARK  245  A    between atoms: _645  and  _647
REMARK  246  A    between atoms: _647  and  _648
REMARK  247  A    between atoms: _647  and  _650
REMARK  248  A    between atoms: _650  and  _651
REMARK  249  A    between atoms: _657  and  _658
REMARK  250  A    between atoms: _663  and  _665
REMARK  251  A    between atoms: _665  and  _666
REMARK  252  A    between atoms: _665  and  _668
REMARK  253  A    between atoms: _668  and  _669
REMARK  254  A    between atoms: _672  and  _674
REMARK  255  A    between atoms: _674  and  _675
REMARK  256  A    between atoms: _674  and  _677
REMARK  257  A    between atoms: _677  and  _678
REMARK  258  A    between atoms: _678  and  _679
REMARK  259  A    between atoms: _682  and  _684
REMARK  260  A    between atoms: _684  and  _685
REMARK  261  A    between atoms: _684  and  _687
REMARK  262  A    between atoms: _687  and  _688
REMARK  263  A    between atoms: _688  and  _689
REMARK  264  A    between atoms: _689  and  _690
REMARK  265  A    between atoms: _690  and  _691
REMARK  266  A    between atoms: _695  and  _697
REMARK  267  A    between atoms: _697  and  _698
REMARK  268  A    between atoms: _700  and  _702
REMARK  269  A    between atoms: _702  and  _703
REMARK  270  A    between atoms: _702  and  _705
REMARK  271  A    between atoms: _705  and  _706
REMARK  272  A    between atoms: _711  and  _713
REMARK  273  A    between atoms: _713  and  _714
REMARK  274  A    between atoms: _713  and  _716
REMARK  275  A    between atoms: _716  and  _717
REMARK  276  A    between atoms: _717  and  _718
REMARK  277  A    between atoms: _718  and  _719
REMARK  278  A    between atoms: _728  and  _730
REMARK  279  A    between atoms: _730  and  _731
REMARK  280  A    between atoms: _730  and  _733
REMARK  281  A    between atoms: _733  and  _734
REMARK  282  A    between atoms: _737  and  _739
REMARK  283  A    between atoms: _739  and  _740
REMARK  284  A    between atoms: _739  and  _742
REMARK  285  A    between atoms: _745  and  _747
REMARK  286  A    between atoms: _747  and  _748
REMARK  287  A    between atoms: _747  and  _750
REMARK  288  A    between atoms: _750  and  _751
REMARK  289  A    between atoms: _751  and  _752
REMARK  290  A    between atoms: _758  and  _759
REMARK  291  A    between atoms: _764  and  _766
REMARK  292  A    between atoms: _766  and  _767
REMARK  293  A    between atoms: _766  and  _769
REMARK  294  A    between atoms: _769  and  _770
REMARK  295  A    between atoms: _773  and  _775
REMARK  296  A    between atoms: _775  and  _776
REMARK  297  A    between atoms: _775  and  _778
REMARK  298  A    between atoms: _778  and  _779
REMARK  299  A    between atoms: _782  and  _784
REMARK  300  A    between atoms: _784  and  _785
REMARK  301  A    between atoms: _784  and  _787
REMARK  302  A    between atoms: _787  and  _788
REMARK  303  A    between atoms: _790  and  _792
REMARK  304  A    between atoms: _792  and  _793
REMARK  305  A    between atoms: _792  and  _795
REMARK  306  A    between atoms: _795  and  _796
REMARK  307  A    between atoms: _796  and  _797
REMARK  308  A    between atoms: _797  and  _798
REMARK  309  A    between atoms: _807  and  _809
REMARK  310  A    between atoms: _809  and  _810
REMARK                            x       y       z     vdW  Elec       q    Type
REMARK                         _______ _______ _______ _____ _____    ______ ____
ROOT
ATOM      1  CB  HIS A   1     -26.544 -28.187  -7.247  0.00  0.00    +0.072 C 
ENDROOT
BRANCH   1   2
ATOM      2  CG  HIS A   1     -26.963 -28.017  -8.672  0.00  0.00    +0.082 A 
ATOM      3  ND1 HIS A   1     -28.199 -28.422  -9.118  0.00  0.00    -0.227 NA
ATOM      4  CE1 HIS A   1     -28.314 -28.145 -10.405  0.00  0.00    +0.199 A 
ATOM      5  NE2 HIS A   1     -27.199 -27.564 -10.804  0.00  0.00    -0.221 NA
ATOM      6  CD2 HIS A   1     -26.331 -27.477  -9.742  0.00  0.00    +0.115 A 
ENDBRANCH   1   2
BRANCH   1   7
ATOM      7  CA  HIS A   1     -25.183 -27.576  -6.897  0.00  0.00    +0.139 C 
BRANCH   7   8
ATOM      8  N   HIS A   1     -24.806 -28.066  -5.577  0.00  0.00    -0.239 NA
ATOM      9  H   HIS A   1     -25.389 -28.790  -5.110  0.00  0.00    +0.142 HD
ENDBRANCH   7   8
BRANCH   7  10
ATOM     10  C   HIS A   1     -25.246 -26.039  -6.929  0.00  0.00    +0.224 C 
ATOM     11  O   HIS A   1     -24.786 -25.392  -7.873  0.00  0.00    -0.287 OA
ENDBRANCH   7  10
ENDBRANCH   1   7
TORSDOF 4
REMARK  Name = ../refined-set-2016/3rt4/3rt4_pocket.pdb
REMARK  310 active torsions:
REMARK  status: ('A' for Active; 'I' for Inactive)
REMARK    1  A    between atoms: _1  and  _3
REMARK    2  A    between atoms: _3  and  _4
REMARK    3  A    between atoms: _3  and  _6
REMARK    4  A    between atoms: _6  and  _7
REMARK    5  A    between atoms: _7  and  _8
REMARK    6  A    between atoms: _8  and  _9
REMARK    7  A    between atoms: _18  and  _20
REMARK    8  A    between atoms: _20  and  _21
REMARK    9  A    between atoms: _20  and  _23
REMARK   10  A    between atoms: _26  and  _28
REMARK   11  A    between atoms: _28  and  _29
REMARK   12  A    between atoms: _28  and  _31
REMARK   13  A    between atoms: _31  and  _32
REMARK   14  A    between atoms: _32  and  _33
REMARK   15  A    between atoms: _33  and  _34
REMARK   16  A    between atoms: _43  and  _45
REMARK   17  A    between atoms: _45  and  _46
REMARK   18  A    between atoms: _45  and  _48
REMARK   19  A    between atoms: _48  and  _49
REMARK   20  A    between atoms: _51  and  _53
REMARK   21  A    between atoms: _53  and  _54
REMARK   22  A    between atoms: _53  and  _56
REMARK   23  A    between atoms: _56  and  _57
REMARK   24  A    between atoms: _62  and  _64
REMARK   25  A    between atoms: _64  and  _65
REMARK   26  A    between atoms: _64  and  _67
REMARK   27  A    between atoms: _67  and  _68
REMARK   28  A    between atoms: _73  and  _74
REMARK   29  A    between atoms: _76  and  _78
REMARK   30  A    between atoms: _78  and  _79
REMARK   31  A    between atoms: _78  and  _81
REMARK   32  A    between atoms: _81  and  _82
REMARK   33  A    between atoms: _82  and  _83
REMARK   34  A    between atoms: _86  and  _88
REMARK   35  A    between atoms: _88  and  _89
REMARK   36  A    between atoms: _88  and  _91
REMARK   37  A    between atoms: _91  and  _92
REMARK   38  A    between atoms: _92  and  _93
REMARK   39  A    between atoms: _93  and  _94
REMARK   40  A    between atoms: _94  and  _95
REMARK   41  A    between atoms: _99  and  _101
REMARK   42  A    between atoms: _101  and  _102
REMARK   43  A    between atoms: _101  and  _104
REMARK   44  A    between atoms: _104  and  _105
REMARK   45  A    between atoms: _110  and  _111
REMARK   46  A    between atoms: _113  and  _115
REMARK   47  A    between atoms: _115  and  _116
REMARK   48  A    between atoms: _115  and  _118
REMARK   49  A    between atoms: _118  and  _119
REMARK   50  A    between atoms: _119  and  _120
REMARK   51  A    between atoms: _120  and  _121
REMARK   52  A    between atoms: _130  and  _132
REMARK   53  A    between atoms: _132  and  _133
REMARK   54  A    between atoms: _136  and  _138
REMARK   55  A    between atoms: _138  and  _139
REMARK   56  A    between atoms: _138  and  _141
REMARK   57  A    between atoms: _141  and  _142
REMARK   58  A    between atoms: _142  and  _258
REMARK   59  A    between atoms: _143  and  _145
REMARK   60  A    between atoms: _145  and  _146
REMARK   61  A    between atoms: _145  and  _148
REMARK   62  A    between atoms: _148  and  _149
REMARK   63  A    between atoms: _149  and  _150
REMARK   64  A    between atoms: _153  and  _155
REMARK   65  A    between atoms: _155  and  _156
REMARK   66  A    between atoms: _155  and  _158
REMARK   67  A    between atoms: _158  and  _159
REMARK   68  A    between atoms: _161  and  _163
REMARK   69  A    between atoms: _163  and  _164
REMARK   70  A    between atoms: _163  and  _166
REMARK   71  A    between atoms: _166  and  _167
REMARK   72  A    between atoms: _172  and  _173
REMARK   73  A    between atoms: _175  and  _177
REMARK   74  A    between atoms: _177  and  _178
REMARK   75  A    between atoms: _177  and  _180
REMARK   76  A    between atoms: _180  and  _181
REMARK   77  A    between atoms: _186  and  _188
REMARK   78  A    between atoms: _188  and  _189
REMARK   79  A    between atoms: _188  and  _191
REMARK   80  A    between atoms: _194  and  _196
REMARK   81  A    between atoms: _196  and  _197
REMARK   82  A    between atoms: _196  and  _199
REMARK   83  A    between atoms: _199  and  _200
REMARK   84  A    between atoms: _200  and  _201
REMARK   85  A    between atoms: _201  and  _202
REMARK   86  A    between atoms: _211  and  _213
REMARK   87  A    between atoms: _213  and  _214
REMARK   88  A    between atoms: _213  and  _216
REMARK   89  A    between atoms: _216  and  _217
REMARK   90  A    between atoms: _222  and  _224
REMARK   91  A    between atoms: _224  and  _225
REMARK   92  A    between atoms: _224  and  _227
REMARK   93  A    between atoms: _227  and  _228
REMARK   94  A    between atoms: _231  and  _233
REMARK   95  A    between atoms: _233  and  _234
REMARK   96  A    between atoms: _236  and  _238
REMARK   97  A    between atoms: _238  and  _239
REMARK   98  A    between atoms: _238  and  _241
REMARK   99  A    between atoms: _241  and  _242
REMARK  100  A    between atoms: _252  and  _254
REMARK  101  A    between atoms: _254  and  _255
REMARK  102  A    between atoms: _254  and  _257
REMARK  103  A    between atoms: _257  and  _258
REMARK  104  A    between atoms: _259  and  _261
REMARK  105  A    between atoms: _261  and  _262
REMARK  106  A    between atoms: _261  and  _264
REMARK  107  A    between atoms: _264  and  _265
REMARK  108  A    between atoms: _268  and  _270
REMARK  109  A    between atoms: _270  and  _271
REMARK  110  A    between atoms: _273  and  _275
REMARK  111  A    between atoms: _275  and  _276
REMARK  112  A    between atoms: _275  and  _278
REMARK  113  A    between atoms: _278  and  _279
REMARK  114  A    between atoms: _284  and  _285
REMARK  115  A    between atoms: _287  and  _289
REMARK  116  A    between atoms: _289  and  _290
REMARK  117  A    between atoms: _289  and  _292
REMARK  118  A    between atoms: _292  and  _293
REMARK  119  A    between atoms: _293  and  _294
REMARK  120  A    between atoms: _294  and  _295
REMARK  121  A    between atoms: _304  and  _306
REMARK  122  A    between atoms: _306  and  _307
REMARK  123  A    between atoms: _306  and  _309
REMARK  124  A    between atoms: _309  and  _310
REMARK  125  A    between atoms: _310  and  _311
REMARK  126  A    between atoms: _311  and  _312
REMARK  127  A    between atoms: _312  and  _313
REMARK  128  A    between atoms: _317  and  _319
REMARK  129  A    between atoms: _319  and  _320
REMARK  130  A    between atoms: _322  and  _324
REMARK  131  A    between atoms: _324  and  _325
REMARK  132  A    between atoms: _328  and  _330
REMARK  133  A    between atoms: _330  and  _331
REMARK  134  A    between atoms: _330  and  _333
REMARK  135  A    between atoms: _333  and  _334
REMARK  136  A    between atoms: _339  and  _341
REMARK  137  A    between atoms: _341  and  _342
REMARK  138  A    between atoms: _345  and  _347
REMARK  139  A    between atoms: _347  and  _348
REMARK  140  A    between atoms: _351  and  _352
REMARK  141  A    between atoms: _357  and  _359
REMARK  142  A    between atoms: _359  and  _360
REMARK  143  A    between atoms: _359  and  _362
REMARK  144  A    between atoms: _362  and  _363
REMARK  145  A    between atoms: _366  and  _368
REMARK  146  A    between atoms: _368  and  _369
REMARK  147  A    between atoms: _368  and  _371
REMARK  148  A    between atoms: _371  and  _372
REMARK  149  A    between atoms: _382  and  _384
REMARK  150  A    between atoms: _384  and  _385
REMARK  151  A    between atoms: _384  and  _387
REMARK  152  A    between atoms: _387  and  _388
REMARK  153  A    between atoms: _394  and  _395
REMARK  154  A    between atoms: _400  and  _402
REMARK  155  A    between atoms: _402  and  _403
REMARK  156  A    between atoms: _402  and  _405
REMARK  157  A    between atoms: _405  and  _406
REMARK  158  A    between atoms: _409  and  _411
REMARK  159  A    between atoms: _411  and  _412
REMARK  160  A    between atoms: _411  and  _414
REMARK  161  A    between atoms: _414  and  _415
REMARK  162  A    between atoms: _417  and  _419
REMARK  163  A    between atoms: _419  and  _420
REMARK  164  A    between atoms: _419  and  _422
REMARK  165  A    between atoms: _422  and  _423
REMARK  166  A    between atoms: _428  and  _430
REMARK  167  A    between atoms: _430  and  _431
REMARK  168  A    between atoms: _430  and  _433
REMARK  169  A    between atoms: _436  and  _438
REMARK  170  A    between atoms: _438  and  _439
REMARK  171  A    between atoms: _438  and  _441
REMARK  172  A    between atoms: _441  and  _442
REMARK  173  A    between atoms: _442  and  _443
REMARK  174  A    between atoms: _449  and  _450
REMARK  175  A    between atoms: _455  and  _457
REMARK  176  A    between atoms: _457  and  _458
REMARK  177  A    between atoms: _457  and  _460
REMARK  178  A    between atoms: _460  and  _461
REMARK  179  A    between atoms: _464  and  _466
REMARK  180  A    between atoms: _466  and  _467
REMARK  181  A    between atoms: _466  and  _469
REMARK  182  A    between atoms: _469  and  _470
REMARK  183  A    between atoms: _473  and  _475
REMARK  184  A    between atoms: _475  and  _476
REMARK  185  A    between atoms: _475  and  _478
REMARK  186  A    between atoms: _478  and  _479
REMARK  187  A    between atoms: _481  and  _483
REMARK  188  A    between atoms: _483  and  _484
REMARK  189  A    between atoms: _483  and  _486
REMARK  190  A    between atoms: _486  and  _487
REMARK  191  A    between atoms: _492  and  _493
REMARK  192  A    between atoms: _495  and  _497
REMARK  193  A    between atoms: _497  and  _498
REMARK  194  A    between atoms: _497  and  _500
REMARK  195  A    between atoms: _500  and  _501
REMARK  196  A    between atoms: _506  and  _508
REMARK  197  A    between atoms: _508  and  _509
REMARK  198  A    between atoms: _508  and  _511
REMARK  199  A    between atoms: _511  and  _512
REMARK  200  A    between atoms: _515  and  _517
REMARK  201  A    between atoms: _517  and  _518
REMARK  202  A    between atoms: _517  and  _520
REMARK  203  A    between atoms: _520  and  _521
REMARK  204  A    between atoms: _531  and  _533
REMARK  205  A    between atoms: _533  and  _534
REMARK  206  A    between atoms: _536  and  _538
REMARK  207  A    between atoms: _538  and  _539
REMARK  208  A    between atoms: _538  and  _541
REMARK  209  A    between atoms: _541  and  _542
REMARK  210  A    between atoms: _547  and  _548
REMARK  211  A    between atoms: _550  and  _552
REMARK  212  A    between atoms: _552  and  _553
REMARK  213  A    between atoms: _552  and  _555
REMARK  214  A    between atoms: _555  and  _556
REMARK  215  A    between atoms: _556  and  _557
REMARK  216  A    between atoms: _557  and  _558
REMARK  217  A    between atoms: _567  and  _569
REMARK  218  A    between atoms: _569  and  _570
REMARK  219  A    between atoms: _569  and  _572
REMARK  220  A    between atoms: _572  and  _573
REMARK  221  A    between atoms: _573  and  _574
REMARK  222  A    between atoms: _574  and  _575
REMARK  223  A    between atoms: _575  and  _576
REMARK  224  A    between atoms: _580  and  _582
REMARK  225  A    between atoms: _582  and  _583
REMARK  226  A    between atoms: _585  and  _587
REMARK  227  A    between atoms: _587  and  _588
REMARK  228  A    between atoms: _591  and  _593
REMARK  229  A    between atoms: _593  and  _594
REMARK  230  A    between atoms: _593  and  _596
REMARK  231  A    between atoms: _596  and  _597
REMARK  232  A    between atoms: _602  and  _604
REMARK  233  A    between atoms: _604  and  _605
REMARK  234  A    between atoms: _608  and  _610
REMARK  235  A    between atoms: _610  and  _611
REMARK  236  A    between atoms: _614  and  _615
REMARK  237  A    between atoms: _620  and  _622
REMARK  238  A    between atoms: _622  and  _623
REMARK  239  A    between atoms: _622  and  _625
REMARK  240  A    between atoms: _625  and  _626
REMARK  241  A    between atoms: _629  and  _631
REMARK  242  A    between atoms: _631  and  _632
REMARK  243  A    between atoms: _631  and  _634
REMARK  244  A    between atoms: _634  and  _635
REMARK  245  A    between atoms: _645  and  _647
REMARK  246  A    between atoms: _647  and  _648
REMARK  247  A    between atoms: _647  and  _650
REMARK  248  A    between atoms: _650  and  _651
REMARK  249  A    between atoms: _657  and  _658
REMARK  250  A    between atoms: _663  and  _665
REMARK  251  A    between atoms: _665  and  _666
REMARK  252  A    between atoms: _665  and  _668
REMARK  253  A    between atoms: _668  and  _669
REMARK  254  A    between atoms: _672  and  _674
REMARK  255  A    between atoms: _674  and  _675
REMARK  256  A    between atoms: _674  and  _677
REMARK  257  A    between atoms: _677  and  _678
REMARK  258  A    between atoms: _678  and  _679
REMARK  259  A    between atoms: _682  and  _684
REMARK  260  A    between atoms: _684  and  _685
REMARK  261  A    between atoms: _684  and  _687
REMARK  262  A    between atoms: _687  and  _688
REMARK  263  A    between atoms: _688  and  _689
REMARK  264  A    between atoms: _689  and  _690
REMARK  265  A    between atoms: _690  and  _691
REMARK  266  A    between atoms: _695  and  _697
REMARK  267  A    between atoms: _697  and  _698
REMARK  268  A    between atoms: _700  and  _702
REMARK  269  A    between atoms: _702  and  _703
REMARK  270  A    between atoms: _702  and  _705
REMARK  271  A    between atoms: _705  and  _706
REMARK  272  A    between atoms: _711  and  _713
REMARK  273  A    between atoms: _713  and  _714
REMARK  274  A    between atoms: _713  and  _716
REMARK  275  A    between atoms: _716  and  _717
REMARK  276  A    between atoms: _717  and  _718
REMARK  277  A    between atoms: _718  and  _719
REMARK  278  A    between atoms: _728  and  _730
REMARK  279  A    between atoms: _730  and  _731
REMARK  280  A    between atoms: _730  and  _733
REMARK  281  A    between atoms: _733  and  _734
REMARK  282  A    between atoms: _737  and  _739
REMARK  283  A    between atoms: _739  and  _740
REMARK  284  A    between atoms: _739  and  _742
REMARK  285  A    between atoms: _745  and  _747
REMARK  286  A    between atoms: _747  and  _748
REMARK  287  A    between atoms: _747  and  _750
REMARK  288  A    between atoms: _750  and  _751
REMARK  289  A    between atoms: _751  and  _752
REMARK  290  A    between atoms: _758  and  _759
REMARK  291  A    between atoms: _764  and  _766
REMARK  292  A    between atoms: _766  and  _767
REMARK  293  A    between atoms: _766  and  _769
REMARK  294  A    between atoms: _769  and  _770
REMARK  295  A    between atoms: _773  and  _775
REMARK  296  A    between atoms: _775  and  _776
REMARK  297  A    between atoms: _775  and  _778
REMARK  298  A    between atoms: _778  and  _779
REMARK  299  A    between atoms: _782  and  _784
REMARK  300  A    between atoms: _784  and  _785
REMARK  301  A    between atoms: _784  and  _787
REMARK  302  A    between atoms: _787  and  _788
REMARK  303  A    between atoms: _790  and  _792
REMARK  304  A    between atoms: _792  and  _793
REMARK  305  A    between atoms: _792  and  _795
REMARK  306  A    between atoms: _795  and  _796
REMARK  307  A    between atoms: _796  and  _797
REMARK  308  A    between atoms: _797  and  _798
REMARK  309  A    between atoms: _807  and  _809
REMARK  310  A    between atoms: _809  and  _810
REMARK                            x       y       z     vdW  Elec       q    Type
REMARK                         _______ _______ _______ _____ _____    ______ ____
ROOT
ATOM      1  C   PRO A   3     -29.092 -21.607  -9.674  0.00  0.00    +0.241 C 
ATOM      2  N   THR A   4     -29.304 -22.039  -8.447  0.00  0.00    -0.295 N 
ATOM      3  H   THR A   4     -28.700 -21.699  -7.672  0.00  0.00    +0.150 HD
ATOM      4  O   PRO A   3     -29.791 -21.945 -10.648  0.00  0.00    -0.273 OA
ENDROOT
BRANCH   1   8
ATOM      5  C   GLN A   2     -26.042 -22.201  -9.889  0.00  0.00    +0.244 C 
ATOM      6  O   GLN A   2     -26.119 -22.414  -8.666  0.00  0.00    -0.273 OA
ATOM      7  N   PRO A   3     -26.879 -21.353 -10.525  0.00  0.00    -0.272 N 
ATOM      8  CA  PRO A   3     -27.928 -20.665  -9.770  0.00  0.00    +0.152 C 
ATOM      9  CB  PRO A   3     -28.239 -19.435 -10.616  0.00  0.00    +0.031 C 
ATOM     10  CG  PRO A   3     -27.950 -19.881 -12.018  0.00  0.00    +0.024 C 
ATOM     11  CD  PRO A   3     -26.725 -20.787 -11.881  0.00  0.00    +0.094 C 
BRANCH   5  12
ATOM     12  CA  GLN A   2     -24.984 -22.912 -10.737  0.00  0.00    +0.149 C 
BRANCH  12  14
ATOM     13  C   VAL A   1     -22.602 -23.299 -10.119  0.00  0.00    +0.238 C 
ATOM     14  N   GLN A   2     -23.898 -23.317  -9.816  0.00  0.00    -0.297 N 
ATOM     15  H   GLN A   2     -24.167 -23.639  -8.864  0.00  0.00    +0.150 HD
ATOM     16  O   VAL A   1     -22.149 -23.002 -11.232  0.00  0.00    -0.274 OA
BRANCH  13  17
ATOM     17  CA  VAL A   1     -21.663 -23.700  -8.989  0.00  0.00    +0.145 C 
BRANCH  17  18
ATOM     18  CB  VAL A   1     -20.949 -25.058  -9.337  0.00  0.00    +0.025 C 
ATOM     19  CG2 VAL A   1     -19.815 -25.349  -8.341  0.00  0.00    +0.002 C 
ATOM     20  CG1 VAL A   1     -21.943 -26.201  -9.296  0.00  0.00    +0.002 C 
ENDBRANCH  17  18
BRANCH  17  21
ATOM     21  N   VAL A   1     -22.262 -23.776  -7.656  0.00  0.00    -0.238 NA
ATOM     22  H   VAL A   1     -23.126 -24.335  -7.507  0.00  0.00    +0.142 HD
ENDBRANCH  17  21
ENDBRANCH  13  17
ENDBRANCH  12  14
BRANCH  12  23
ATOM     23  CB  GLN A   2     -25.710 -24.062 -11.399  0.00  0.00    +0.039 C 
BRANCH  23  24
ATOM     24  CG  GLN A   2     -24.898 -25.006 -12.216  0.00  0.00    +0.087 C 
BRANCH  24  25
ATOM     25  CD  GLN A   2     -24.720 -24.510 -13.609  0.00  0.00    +0.219 C 
ATOM     26  NE2 GLN A   2     -23.699 -23.697 -13.810  0.00  0.00    -0.329 N 
ATOM     27 HE21 GLN A   2     -23.060 -23.460 -13.024  0.00  0.00    +0.145 HD
ATOM     28 HE22 GLN A   2     -23.534 -23.293 -14.754  0.00  0.00    +0.145 HD
ATOM     29  OE1 GLN A   2     -25.506 -24.824 -14.500  0.00  0.00    -0.275 OA
ENDBRANCH  24  25
ENDBRANCH  23  24
ENDBRANCH  12  23
ENDBRANCH   5  12
ENDBRANCH   1   8
BRANCH   2  30
ATOM     30  CA  THR A   4     -30.353 -22.968  -8.168  0.00  0.00    +0.176 C 
BRANCH  30  31
ATOM     31  C   THR A   4     -30.513 -23.118  -6.663  0.00  0.00    +0.243 C 
ATOM     32  O   THR A   4     -29.617 -22.774  -5.890  0.00  0.00    -0.273 OA
ATOM     33  N   LEU A   5     -31.677 -23.617  -6.274  0.00  0.00    -0.297 N 
ATOM     34  H   LEU A   5     -32.409 -23.802  -6.990  0.00  0.00    +0.150 HD
BRANCH  33  35
ATOM     35  CA  LEU A   5     -31.966 -23.915  -4.883  0.00  0.00    +0.149 C 
BRANCH  35  36
ATOM     36  C   LEU A   5     -31.336 -25.278  -4.557  0.00  0.00    +0.241 C 
ATOM     37  O   LEU A   5     -31.062 -25.589  -3.398  0.00  0.00    -0.273 OA
ATOM     38  N   SER A   6     -31.147 -26.090  -5.593  0.00  0.00    -0.296 N 
ATOM     39  H   SER A   6     -31.410 -25.754  -6.541  0.00  0.00    +0.150 HD
BRANCH  38  40
ATOM     40  CA  SER A   6     -30.587 -27.432  -5.461  0.00  0.00    +0.166 C 
BRANCH  40  41
ATOM     41  CB  SER A   6     -29.265 -27.344  -4.682  0.00  0.00    +0.229 C 
ATOM     42  OG  SER A   6     -28.480 -26.438  -4.890  0.00  0.00    -0.286 OA
ENDBRANCH  40  41
BRANCH  40  43
ATOM     43  C   SER A   6     -30.288 -27.989  -6.875  0.00  0.00    +0.165 C 
BRANCH  43  44
ATOM     44  O   SER A   6     -29.754 -29.295  -6.867  0.00  0.00    -0.380 OA
ATOM     45  H   SER A   6     -29.587 -29.588  -7.798  0.00  0.00    +0.211 HD
ENDBRANCH  43  44
ENDBRANCH  40  43
ENDBRANCH  38  40
ENDBRANCH  35  36
BRANCH  35  46
ATOM     46  CB  LEU A   5     -33.462 -24.038  -4.674  0.00  0.00    +0.029 C 
BRANCH  46  47
ATOM     47  CG  LEU A   5     -34.082 -22.682  -4.727  0.00  0.00    +0.002 C 
ATOM     48  CD2 LEU A   5     -33.304 -21.732  -3.848  0.00  0.00    +0.000 C 
ATOM     49  CD1 LEU A   5     -35.472 -22.779  -4.222  0.00  0.00    +0.000 C 
ENDBRANCH  46  47
ENDBRANCH  35  46
ENDBRANCH  33  35
ENDBRANCH  30  31
BRANCH  30  50
ATOM     50  CB  THR A   4     -29.979 -24.333  -8.764  0.00  0.00    +0.137 C 
ATOM     51  CG2 THR A   4     -28.664 -24.800  -8.179  0.00  0.00    +0.034 C 
BRANCH  50  52
ATOM     52  OG1 THR A   4     -30.989 -25.299  -8.464  0.00  0.00    -0.382 OA
ATOM     53  HG1 THR A   4     -31.852 -25.003  -8.849  0.00  0.00    +0.210 HD
ENDBRANCH  50  52
ENDBRANCH  30  50
ENDBRANCH   2  30
TORSDOF 21
REMARK  Name = ../refined-set-2016/3rt4/3rt4_pocket.pdb
REMARK  310 active torsions:
REMARK  status: ('A' for Active; 'I' for Inactive)
REMARK    1  A    between atoms: _1  and  _3
REMARK    2  A    between atoms: _3  and  _4
REMARK    3  A    between atoms: _3  and  _6
REMARK    4  A    between atoms: _6  and  _7
REMARK    5  A    between atoms: _7  and  _8
REMARK    6  A    between atoms: _8  and  _9
REMARK    7  A    between atoms: _18  and  _20
REMARK    8  A    between atoms: _20  and  _21
REMARK    9  A    between atoms: _20  and  _23
REMARK   10  A    between atoms: _26  and  _28
REMARK   11  A    between atoms: _28  and  _29
REMARK   12  A    between atoms: _28  and  _31
REMARK   13  A    between atoms: _31  and  _32
REMARK   14  A    between atoms: _32  and  _33
REMARK   15  A    between atoms: _33  and  _34
REMARK   16  A    between atoms: _43  and  _45
REMARK   17  A    between atoms: _45  and  _46
REMARK   18  A    between atoms: _45  and  _48
REMARK   19  A    between atoms: _48  and  _49
REMARK   20  A    between atoms: _51  and  _53
REMARK   21  A    between atoms: _53  and  _54
REMARK   22  A    between atoms: _53  and  _56
REMARK   23  A    between atoms: _56  and  _57
REMARK   24  A    between atoms: _62  and  _64
REMARK   25  A    between atoms: _64  and  _65
REMARK   26  A    between atoms: _64  and  _67
REMARK   27  A    between atoms: _67  and  _68
REMARK   28  A    between atoms: _73  and  _74
REMARK   29  A    between atoms: _76  and  _78
REMARK   30  A    between atoms: _78  and  _79
REMARK   31  A    between atoms: _78  and  _81
REMARK   32  A    between atoms: _81  and  _82
REMARK   33  A    between atoms: _82  and  _83
REMARK   34  A    between atoms: _86  and  _88
REMARK   35  A    between atoms: _88  and  _89
REMARK   36  A    between atoms: _88  and  _91
REMARK   37  A    between atoms: _91  and  _92
REMARK   38  A    between atoms: _92  and  _93
REMARK   39  A    between atoms: _93  and  _94
REMARK   40  A    between atoms: _94  and  _95
REMARK   41  A    between atoms: _99  and  _101
REMARK   42  A    between atoms: _101  and  _102
REMARK   43  A    between atoms: _101  and  _104
REMARK   44  A    between atoms: _104  and  _105
REMARK   45  A    between atoms: _110  and  _111
REMARK   46  A    between atoms: _113  and  _115
REMARK   47  A    between atoms: _115  and  _116
REMARK   48  A    between atoms: _115  and  _118
REMARK   49  A    between atoms: _118  and  _119
REMARK   50  A    between atoms: _119  and  _120
REMARK   51  A    between atoms: _120  and  _121
REMARK   52  A    between atoms: _130  and  _132
REMARK   53  A    between atoms: _132  and  _133
REMARK   54  A    between atoms: _136  and  _138
REMARK   55  A    between atoms: _138  and  _139
REMARK   56  A    between atoms: _138  and  _141
REMARK   57  A    between atoms: _141  and  _142
REMARK   58  A    between atoms: _142  and  _258
REMARK   59  A    between atoms: _143  and  _145
REMARK   60  A    between atoms: _145  and  _146
REMARK   61  A    between atoms: _145  and  _148
REMARK   62  A    between atoms: _148  and  _149
REMARK   63  A    between atoms: _149  and  _150
REMARK   64  A    between atoms: _153  and  _155
REMARK   65  A    between atoms: _155  and  _156
REMARK   66  A    between atoms: _155  and  _158
REMARK   67  A    between atoms: _158  and  _159
REMARK   68  A    between atoms: _161  and  _163
REMARK   69  A    between atoms: _163  and  _164
REMARK   70  A    between atoms: _163  and  _166
REMARK   71  A    between atoms: _166  and  _167
REMARK   72  A    between atoms: _172  and  _173
REMARK   73  A    between atoms: _175  and  _177
REMARK   74  A    between atoms: _177  and  _178
REMARK   75  A    between atoms: _177  and  _180
REMARK   76  A    between atoms: _180  and  _181
REMARK   77  A    between atoms: _186  and  _188
REMARK   78  A    between atoms: _188  and  _189
REMARK   79  A    between atoms: _188  and  _191
REMARK   80  A    between atoms: _194  and  _196
REMARK   81  A    between atoms: _196  and  _197
REMARK   82  A    between atoms: _196  and  _199
REMARK   83  A    between atoms: _199  and  _200
REMARK   84  A    between atoms: _200  and  _201
REMARK   85  A    between atoms: _201  and  _202
REMARK   86  A    between atoms: _211  and  _213
REMARK   87  A    between atoms: _213  and  _214
REMARK   88  A    between atoms: _213  and  _216
REMARK   89  A    between atoms: _216  and  _217
REMARK   90  A    between atoms: _222  and  _224
REMARK   91  A    between atoms: _224  and  _225
REMARK   92  A    between atoms: _224  and  _227
REMARK   93  A    between atoms: _227  and  _228
REMARK   94  A    between atoms: _231  and  _233
REMARK   95  A    between atoms: _233  and  _234
REMARK   96  A    between atoms: _236  and  _238
REMARK   97  A    between atoms: _238  and  _239
REMARK   98  A    between atoms: _238  and  _241
REMARK   99  A    between atoms: _241  and  _242
REMARK  100  A    between atoms: _252  and  _254
REMARK  101  A    between atoms: _254  and  _255
REMARK  102  A    between atoms: _254  and  _257
REMARK  103  A    between atoms: _257  and  _258
REMARK  104  A    between atoms: _259  and  _261
REMARK  105  A    between atoms: _261  and  _262
REMARK  106  A    between atoms: _261  and  _264
REMARK  107  A    between atoms: _264  and  _265
REMARK  108  A    between atoms: _268  and  _270
REMARK  109  A    between atoms: _270  and  _271
REMARK  110  A    between atoms: _273  and  _275
REMARK  111  A    between atoms: _275  and  _276
REMARK  112  A    between atoms: _275  and  _278
REMARK  113  A    between atoms: _278  and  _279
REMARK  114  A    between atoms: _284  and  _285
REMARK  115  A    between atoms: _287  and  _289
REMARK  116  A    between atoms: _289  and  _290
REMARK  117  A    between atoms: _289  and  _292
REMARK  118  A    between atoms: _292  and  _293
REMARK  119  A    between atoms: _293  and  _294
REMARK  120  A    between atoms: _294  and  _295
REMARK  121  A    between atoms: _304  and  _306
REMARK  122  A    between atoms: _306  and  _307
REMARK  123  A    between atoms: _306  and  _309
REMARK  124  A    between atoms: _309  and  _310
REMARK  125  A    between atoms: _310  and  _311
REMARK  126  A    between atoms: _311  and  _312
REMARK  127  A    between atoms: _312  and  _313
REMARK  128  A    between atoms: _317  and  _319
REMARK  129  A    between atoms: _319  and  _320
REMARK  130  A    between atoms: _322  and  _324
REMARK  131  A    between atoms: _324  and  _325
REMARK  132  A    between atoms: _328  and  _330
REMARK  133  A    between atoms: _330  and  _331
REMARK  134  A    between atoms: _330  and  _333
REMARK  135  A    between atoms: _333  and  _334
REMARK  136  A    between atoms: _339  and  _341
REMARK  137  A    between atoms: _341  and  _342
REMARK  138  A    between atoms: _345  and  _347
REMARK  139  A    between atoms: _347  and  _348
REMARK  140  A    between atoms: _351  and  _352
REMARK  141  A    between atoms: _357  and  _359
REMARK  142  A    between atoms: _359  and  _360
REMARK  143  A    between atoms: _359  and  _362
REMARK  144  A    between atoms: _362  and  _363
REMARK  145  A    between atoms: _366  and  _368
REMARK  146  A    between atoms: _368  and  _369
REMARK  147  A    between atoms: _368  and  _371
REMARK  148  A    between atoms: _371  and  _372
REMARK  149  A    between atoms: _382  and  _384
REMARK  150  A    between atoms: _384  and  _385
REMARK  151  A    between atoms: _384  and  _387
REMARK  152  A    between atoms: _387  and  _388
REMARK  153  A    between atoms: _394  and  _395
REMARK  154  A    between atoms: _400  and  _402
REMARK  155  A    between atoms: _402  and  _403
REMARK  156  A    between atoms: _402  and  _405
REMARK  157  A    between atoms: _405  and  _406
REMARK  158  A    between atoms: _409  and  _411
REMARK  159  A    between atoms: _411  and  _412
REMARK  160  A    between atoms: _411  and  _414
REMARK  161  A    between atoms: _414  and  _415
REMARK  162  A    between atoms: _417  and  _419
REMARK  163  A    between atoms: _419  and  _420
REMARK  164  A    between atoms: _419  and  _422
REMARK  165  A    between atoms: _422  and  _423
REMARK  166  A    between atoms: _428  and  _430
REMARK  167  A    between atoms: _430  and  _431
REMARK  168  A    between atoms: _430  and  _433
REMARK  169  A    between atoms: _436  and  _438
REMARK  170  A    between atoms: _438  and  _439
REMARK  171  A    between atoms: _438  and  _441
REMARK  172  A    between atoms: _441  and  _442
REMARK  173  A    between atoms: _442  and  _443
REMARK  174  A    between atoms: _449  and  _450
REMARK  175  A    between atoms: _455  and  _457
REMARK  176  A    between atoms: _457  and  _458
REMARK  177  A    between atoms: _457  and  _460
REMARK  178  A    between atoms: _460  and  _461
REMARK  179  A    between atoms: _464  and  _466
REMARK  180  A    between atoms: _466  and  _467
REMARK  181  A    between atoms: _466  and  _469
REMARK  182  A    between atoms: _469  and  _470
REMARK  183  A    between atoms: _473  and  _475
REMARK  184  A    between atoms: _475  and  _476
REMARK  185  A    between atoms: _475  and  _478
REMARK  186  A    between atoms: _478  and  _479
REMARK  187  A    between atoms: _481  and  _483
REMARK  188  A    between atoms: _483  and  _484
REMARK  189  A    between atoms: _483  and  _486
REMARK  190  A    between atoms: _486  and  _487
REMARK  191  A    between atoms: _492  and  _493
REMARK  192  A    between atoms: _495  and  _497
REMARK  193  A    between atoms: _497  and  _498
REMARK  194  A    between atoms: _497  and  _500
REMARK  195  A    between atoms: _500  and  _501
REMARK  196  A    between atoms: _506  and  _508
REMARK  197  A    between atoms: _508  and  _509
REMARK  198  A    between atoms: _508  and  _511
REMARK  199  A    between atoms: _511  and  _512
REMARK  200  A    between atoms: _515  and  _517
REMARK  201  A    between atoms: _517  and  _518
REMARK  202  A    between atoms: _517  and  _520
REMARK  203  A    between atoms: _520  and  _521
REMARK  204  A    between atoms: _531  and  _533
REMARK  205  A    between atoms: _533  and  _534
REMARK  206  A    between atoms: _536  and  _538
REMARK  207  A    between atoms: _538  and  _539
REMARK  208  A    between atoms: _538  and  _541
REMARK  209  A    between atoms: _541  and  _542
REMARK  210  A    between atoms: _547  and  _548
REMARK  211  A    between atoms: _550  and  _552
REMARK  212  A    between atoms: _552  and  _553
REMARK  213  A    between atoms: _552  and  _555
REMARK  214  A    between atoms: _555  and  _556
REMARK  215  A    between atoms: _556  and  _557
REMARK  216  A    between atoms: _557  and  _558
REMARK  217  A    between atoms: _567  and  _569
REMARK  218  A    between atoms: _569  and  _570
REMARK  219  A    between atoms: _569  and  _572
REMARK  220  A    between atoms: _572  and  _573
REMARK  221  A    between atoms: _573  and  _574
REMARK  222  A    between atoms: _574  and  _575
REMARK  223  A    between atoms: _575  and  _576
REMARK  224  A    between atoms: _580  and  _582
REMARK  225  A    between atoms: _582  and  _583
REMARK  226  A    between atoms: _585  and  _587
REMARK  227  A    between atoms: _587  and  _588
REMARK  228  A    between atoms: _591  and  _593
REMARK  229  A    between atoms: _593  and  _594
REMARK  230  A    between atoms: _593  and  _596
REMARK  231  A    between atoms: _596  and  _597
REMARK  232  A    between atoms: _602  and  _604
REMARK  233  A    between atoms: _604  and  _605
REMARK  234  A    between atoms: _608  and  _610
REMARK  235  A    between atoms: _610  and  _611
REMARK  236  A    between atoms: _614  and  _615
REMARK  237  A    between atoms: _620  and  _622
REMARK  238  A    between atoms: _622  and  _623
REMARK  239  A    between atoms: _622  and  _625
REMARK  240  A    between atoms: _625  and  _626
REMARK  241  A    between atoms: _629  and  _631
REMARK  242  A    between atoms: _631  and  _632
REMARK  243  A    between atoms: _631  and  _634
REMARK  244  A    between atoms: _634  and  _635
REMARK  245  A    between atoms: _645  and  _647
REMARK  246  A    between atoms: _647  and  _648
REMARK  247  A    between atoms: _647  and  _650
REMARK  248  A    between atoms: _650  and  _651
REMARK  249  A    between atoms: _657  and  _658
REMARK  250  A    between atoms: _663  and  _665
REMARK  251  A    between atoms: _665  and  _666
REMARK  252  A    between atoms: _665  and  _668
REMARK  253  A    between atoms: _668  and  _669
REMARK  254  A    between atoms: _672  and  _674
REMARK  255  A    between atoms: _674  and  _675
REMARK  256  A    between atoms: _674  and  _677
REMARK  257  A    between atoms: _677  and  _678
REMARK  258  A    between atoms: _678  and  _679
REMARK  259  A    between atoms: _682  and  _684
REMARK  260  A    between atoms: _684  and  _685
REMARK  261  A    between atoms: _684  and  _687
REMARK  262  A    between atoms: _687  and  _688
REMARK  263  A    between atoms: _688  and  _689
REMARK  264  A    between atoms: _689  and  _690
REMARK  265  A    between atoms: _690  and  _691
REMARK  266  A    between atoms: _695  and  _697
REMARK  267  A    between atoms: _697  and  _698
REMARK  268  A    between atoms: _700  and  _702
REMARK  269  A    between atoms: _702  and  _703
REMARK  270  A    between atoms: _702  and  _705
REMARK  271  A    between atoms: _705  and  _706
REMARK  272  A    between atoms: _711  and  _713
REMARK  273  A    between atoms: _713  and  _714
REMARK  274  A    between atoms: _713  and  _716
REMARK  275  A    between atoms: _716  and  _717
REMARK  276  A    between atoms: _717  and  _718
REMARK  277  A    between atoms: _718  and  _719
REMARK  278  A    between atoms: _728  and  _730
REMARK  279  A    between atoms: _730  and  _731
REMARK  280  A    between atoms: _730  and  _733
REMARK  281  A    between atoms: _733  and  _734
REMARK  282  A    between atoms: _737  and  _739
REMARK  283  A    between atoms: _739  and  _740
REMARK  284  A    between atoms: _739  and  _742
REMARK  285  A    between atoms: _745  and  _747
REMARK  286  A    between atoms: _747  and  _748
REMARK  287  A    between atoms: _747  and  _750
REMARK  288  A    between atoms: _750  and  _751
REMARK  289  A    between atoms: _751  and  _752
REMARK  290  A    between atoms: _758  and  _759
REMARK  291  A    between atoms: _764  and  _766
REMARK  292  A    between atoms: _766  and  _767
REMARK  293  A    between atoms: _766  and  _769
REMARK  294  A    between atoms: _769  and  _770
REMARK  295  A    between atoms: _773  and  _775
REMARK  296  A    between atoms: _775  and  _776
REMARK  297  A    between atoms: _775  and  _778
REMARK  298  A    between atoms: _778  and  _779
REMARK  299  A    between atoms: _782  and  _784
REMARK  300  A    between atoms: _784  and  _785
REMARK  301  A    between atoms: _784  and  _787
REMARK  302  A    between atoms: _787  and  _788
REMARK  303  A    between atoms: _790  and  _792
REMARK  304  A    between atoms: _792  and  _793
REMARK  305  A    between atoms: _792  and  _795
REMARK  306  A    between atoms: _795  and  _796
REMARK  307  A    between atoms: _796  and  _797
REMARK  308  A    between atoms: _797  and  _798
REMARK  309  A    between atoms: _807  and  _809
REMARK  310  A    between atoms: _809  and  _810
REMARK                            x       y       z     vdW  Elec       q    Type
REMARK                         _______ _______ _______ _____ _____    ______ ____
ROOT
ATOM      1  CG  TYR A   1     -35.271 -20.140 -29.282  0.00  0.00    -0.020 A 
ATOM      2  CD2 TYR A   1     -36.446 -20.842 -29.497  0.00  0.00    -0.001 A 
ATOM      3  CE2 TYR A   1     -36.560 -21.777 -30.512  0.00  0.00    +0.036 A 
ATOM      4  CZ  TYR A   1     -35.481 -22.027 -31.346  0.00  0.00    +0.134 A 
ATOM      5  CE1 TYR A   1     -34.279 -21.339 -31.160  0.00  0.00    +0.036 A 
ATOM      6  CD1 TYR A   1     -34.178 -20.397 -30.122  0.00  0.00    -0.001 A 
ENDROOT
BRANCH   4   7
ATOM      7  OH  TYR A   1     -35.617 -22.961 -32.350  0.00  0.00    -0.506 OA
ATOM      8  HH  TYR A   1     -36.345 -22.684 -32.961  0.00  0.00    +0.292 HD
ENDBRANCH   4   7
BRANCH   1   9
ATOM      9  CB  TYR A   1     -35.207 -19.115 -28.182  0.00  0.00    +0.051 C 
BRANCH   9  10
ATOM     10  CA  TYR A   1     -35.942 -17.817 -28.497  0.00  0.00    +0.137 C 
BRANCH  10  11
ATOM     11  N   TYR A   1     -35.348 -17.253 -29.680  0.00  0.00    -0.239 NA
ATOM     12  H   TYR A   1     -34.343 -16.986 -29.674  0.00  0.00    +0.142 HD
ENDBRANCH  10  11
BRANCH  10  13
ATOM     13  C   TYR A   1     -35.911 -16.970 -27.267  0.00  0.00    +0.224 C 
ATOM     14  O   TYR A   1     -34.984 -16.196 -27.088  0.00  0.00    -0.287 OA
ENDBRANCH  10  13
ENDBRANCH   9  10
ENDBRANCH   1   9
TORSDOF 5
REMARK  Name = ../refined-set-2016/3rt4/3rt4_pocket.pdb
REMARK  310 active torsions:
REMARK  status: ('A' for Active; 'I' for Inactive)
REMARK    1  A    between atoms: _1  and  _3
REMARK    2  A    between atoms: _3  and  _4
REMARK    3  A    between atoms: _3  and  _6
REMARK    4  A    between atoms: _6  and  _7
REMARK    5  A    between atoms: _7  and  _8
REMARK    6  A    between atoms: _8  and  _9
REMARK    7  A    between atoms: _18  and  _20
REMARK    8  A    between atoms: _20  and  _21
REMARK    9  A    between atoms: _20  and  _23
REMARK   10  A    between atoms: _26  and  _28
REMARK   11  A    between atoms: _28  and  _29
REMARK   12  A    between atoms: _28  and  _31
REMARK   13  A    between atoms: _31  and  _32
REMARK   14  A    between atoms: _32  and  _33
REMARK   15  A    between atoms: _33  and  _34
REMARK   16  A    between atoms: _43  and  _45
REMARK   17  A    between atoms: _45  and  _46
REMARK   18  A    between atoms: _45  and  _48
REMARK   19  A    between atoms: _48  and  _49
REMARK   20  A    between atoms: _51  and  _53
REMARK   21  A    between atoms: _53  and  _54
REMARK   22  A    between atoms: _53  and  _56
REMARK   23  A    between atoms: _56  and  _57
REMARK   24  A    between atoms: _62  and  _64
REMARK   25  A    between atoms: _64  and  _65
REMARK   26  A    between atoms: _64  and  _67
REMARK   27  A    between atoms: _67  and  _68
REMARK   28  A    between atoms: _73  and  _74
REMARK   29  A    between atoms: _76  and  _78
REMARK   30  A    between atoms: _78  and  _79
REMARK   31  A    between atoms: _78  and  _81
REMARK   32  A    between atoms: _81  and  _82
REMARK   33  A    between atoms: _82  and  _83
REMARK   34  A    between atoms: _86  and  _88
REMARK   35  A    between atoms: _88  and  _89
REMARK   36  A    between atoms: _88  and  _91
REMARK   37  A    between atoms: _91  and  _92
REMARK   38  A    between atoms: _92  and  _93
REMARK   39  A    between atoms: _93  and  _94
REMARK   40  A    between atoms: _94  and  _95
REMARK   41  A    between atoms: _99  and  _101
REMARK   42  A    between atoms: _101  and  _102
REMARK   43  A    between atoms: _101  and  _104
REMARK   44  A    between atoms: _104  and  _105
REMARK   45  A    between atoms: _110  and  _111
REMARK   46  A    between atoms: _113  and  _115
REMARK   47  A    between atoms: _115  and  _116
REMARK   48  A    between atoms: _115  and  _118
REMARK   49  A    between atoms: _118  and  _119
REMARK   50  A    between atoms: _119  and  _120
REMARK   51  A    between atoms: _120  and  _121
REMARK   52  A    between atoms: _130  and  _132
REMARK   53  A    between atoms: _132  and  _133
REMARK   54  A    between atoms: _136  and  _138
REMARK   55  A    between atoms: _138  and  _139
REMARK   56  A    between atoms: _138  and  _141
REMARK   57  A    between atoms: _141  and  _142
REMARK   58  A    between atoms: _142  and  _258
REMARK   59  A    between atoms: _143  and  _145
REMARK   60  A    between atoms: _145  and  _146
REMARK   61  A    between atoms: _145  and  _148
REMARK   62  A    between atoms: _148  and  _149
REMARK   63  A    between atoms: _149  and  _150
REMARK   64  A    between atoms: _153  and  _155
REMARK   65  A    between atoms: _155  and  _156
REMARK   66  A    between atoms: _155  and  _158
REMARK   67  A    between atoms: _158  and  _159
REMARK   68  A    between atoms: _161  and  _163
REMARK   69  A    between atoms: _163  and  _164
REMARK   70  A    between atoms: _163  and  _166
REMARK   71  A    between atoms: _166  and  _167
REMARK   72  A    between atoms: _172  and  _173
REMARK   73  A    between atoms: _175  and  _177
REMARK   74  A    between atoms: _177  and  _178
REMARK   75  A    between atoms: _177  and  _180
REMARK   76  A    between atoms: _180  and  _181
REMARK   77  A    between atoms: _186  and  _188
REMARK   78  A    between atoms: _188  and  _189
REMARK   79  A    between atoms: _188  and  _191
REMARK   80  A    between atoms: _194  and  _196
REMARK   81  A    between atoms: _196  and  _197
REMARK   82  A    between atoms: _196  and  _199
REMARK   83  A    between atoms: _199  and  _200
REMARK   84  A    between atoms: _200  and  _201
REMARK   85  A    between atoms: _201  and  _202
REMARK   86  A    between atoms: _211  and  _213
REMARK   87  A    between atoms: _213  and  _214
REMARK   88  A    between atoms: _213  and  _216
REMARK   89  A    between atoms: _216  and  _217
REMARK   90  A    between atoms: _222  and  _224
REMARK   91  A    between atoms: _224  and  _225
REMARK   92  A    between atoms: _224  and  _227
REMARK   93  A    between atoms: _227  and  _228
REMARK   94  A    between atoms: _231  and  _233
REMARK   95  A    between atoms: _233  and  _234
REMARK   96  A    between atoms: _236  and  _238
REMARK   97  A    between atoms: _238  and  _239
REMARK   98  A    between atoms: _238  and  _241
REMARK   99  A    between atoms: _241  and  _242
REMARK  100  A    between atoms: _252  and  _254
REMARK  101  A    between atoms: _254  and  _255
REMARK  102  A    between atoms: _254  and  _257
REMARK  103  A    between atoms: _257  and  _258
REMARK  104  A    between atoms: _259  and  _261
REMARK  105  A    between atoms: _261  and  _262
REMARK  106  A    between atoms: _261  and  _264
REMARK  107  A    between atoms: _264  and  _265
REMARK  108  A    between atoms: _268  and  _270
REMARK  109  A    between atoms: _270  and  _271
REMARK  110  A    between atoms: _273  and  _275
REMARK  111  A    between atoms: _275  and  _276
REMARK  112  A    between atoms: _275  and  _278
REMARK  113  A    between atoms: _278  and  _279
REMARK  114  A    between atoms: _284  and  _285
REMARK  115  A    between atoms: _287  and  _289
REMARK  116  A    between atoms: _289  and  _290
REMARK  117  A    between atoms: _289  and  _292
REMARK  118  A    between atoms: _292  and  _293
REMARK  119  A    between atoms: _293  and  _294
REMARK  120  A    between atoms: _294  and  _295
REMARK  121  A    between atoms: _304  and  _306
REMARK  122  A    between atoms: _306  and  _307
REMARK  123  A    between atoms: _306  and  _309
REMARK  124  A    between atoms: _309  and  _310
REMARK  125  A    between atoms: _310  and  _311
REMARK  126  A    between atoms: _311  and  _312
REMARK  127  A    between atoms: _312  and  _313
REMARK  128  A    between atoms: _317  and  _319
REMARK  129  A    between atoms: _319  and  _320
REMARK  130  A    between atoms: _322  and  _324
REMARK  131  A    between atoms: _324  and  _325
REMARK  132  A    between atoms: _328  and  _330
REMARK  133  A    between atoms: _330  and  _331
REMARK  134  A    between atoms: _330  and  _333
REMARK  135  A    between atoms: _333  and  _334
REMARK  136  A    between atoms: _339  and  _341
REMARK  137  A    between atoms: _341  and  _342
REMARK  138  A    between atoms: _345  and  _347
REMARK  139  A    between atoms: _347  and  _348
REMARK  140  A    between atoms: _351  and  _352
REMARK  141  A    between atoms: _357  and  _359
REMARK  142  A    between atoms: _359  and  _360
REMARK  143  A    between atoms: _359  and  _362
REMARK  144  A    between atoms: _362  and  _363
REMARK  145  A    between atoms: _366  and  _368
REMARK  146  A    between atoms: _368  and  _369
REMARK  147  A    between atoms: _368  and  _371
REMARK  148  A    between atoms: _371  and  _372
REMARK  149  A    between atoms: _382  and  _384
REMARK  150  A    between atoms: _384  and  _385
REMARK  151  A    between atoms: _384  and  _387
REMARK  152  A    between atoms: _387  and  _388
REMARK  153  A    between atoms: _394  and  _395
REMARK  154  A    between atoms: _400  and  _402
REMARK  155  A    between atoms: _402  and  _403
REMARK  156  A    between atoms: _402  and  _405
REMARK  157  A    between atoms: _405  and  _406
REMARK  158  A    between atoms: _409  and  _411
REMARK  159  A    between atoms: _411  and  _412
REMARK  160  A    between atoms: _411  and  _414
REMARK  161  A    between atoms: _414  and  _415
REMARK  162  A    between atoms: _417  and  _419
REMARK  163  A    between atoms: _419  and  _420
REMARK  164  A    between atoms: _419  and  _422
REMARK  165  A    between atoms: _422  and  _423
REMARK  166  A    between atoms: _428  and  _430
REMARK  167  A    between atoms: _430  and  _431
REMARK  168  A    between atoms: _430  and  _433
REMARK  169  A    between atoms: _436  and  _438
REMARK  170  A    between atoms: _438  and  _439
REMARK  171  A    between atoms: _438  and  _441
REMARK  172  A    between atoms: _441  and  _442
REMARK  173  A    between atoms: _442  and  _443
REMARK  174  A    between atoms: _449  and  _450
REMARK  175  A    between atoms: _455  and  _457
REMARK  176  A    between atoms: _457  and  _458
REMARK  177  A    between atoms: _457  and  _460
REMARK  178  A    between atoms: _460  and  _461
REMARK  179  A    between atoms: _464  and  _466
REMARK  180  A    between atoms: _466  and  _467
REMARK  181  A    between atoms: _466  and  _469
REMARK  182  A    between atoms: _469  and  _470
REMARK  183  A    between atoms: _473  and  _475
REMARK  184  A    between atoms: _475  and  _476
REMARK  185  A    between atoms: _475  and  _478
REMARK  186  A    between atoms: _478  and  _479
REMARK  187  A    between atoms: _481  and  _483
REMARK  188  A    between atoms: _483  and  _484
REMARK  189  A    between atoms: _483  and  _486
REMARK  190  A    between atoms: _486  and  _487
REMARK  191  A    between atoms: _492  and  _493
REMARK  192  A    between atoms: _495  and  _497
REMARK  193  A    between atoms: _497  and  _498
REMARK  194  A    between atoms: _497  and  _500
REMARK  195  A    between atoms: _500  and  _501
REMARK  196  A    between atoms: _506  and  _508
REMARK  197  A    between atoms: _508  and  _509
REMARK  198  A    between atoms: _508  and  _511
REMARK  199  A    between atoms: _511  and  _512
REMARK  200  A    between atoms: _515  and  _517
REMARK  201  A    between atoms: _517  and  _518
REMARK  202  A    between atoms: _517  and  _520
REMARK  203  A    between atoms: _520  and  _521
REMARK  204  A    between atoms: _531  and  _533
REMARK  205  A    between atoms: _533  and  _534
REMARK  206  A    between atoms: _536  and  _538
REMARK  207  A    between atoms: _538  and  _539
REMARK  208  A    between atoms: _538  and  _541
REMARK  209  A    between atoms: _541  and  _542
REMARK  210  A    between atoms: _547  and  _548
REMARK  211  A    between atoms: _550  and  _552
REMARK  212  A    between atoms: _552  and  _553
REMARK  213  A    between atoms: _552  and  _555
REMARK  214  A    between atoms: _555  and  _556
REMARK  215  A    between atoms: _556  and  _557
REMARK  216  A    between atoms: _557  and  _558
REMARK  217  A    between atoms: _567  and  _569
REMARK  218  A    between atoms: _569  and  _570
REMARK  219  A    between atoms: _569  and  _572
REMARK  220  A    between atoms: _572  and  _573
REMARK  221  A    between atoms: _573  and  _574
REMARK  222  A    between atoms: _574  and  _575
REMARK  223  A    between atoms: _575  and  _576
REMARK  224  A    between atoms: _580  and  _582
REMARK  225  A    between atoms: _582  and  _583
REMARK  226  A    between atoms: _585  and  _587
REMARK  227  A    between atoms: _587  and  _588
REMARK  228  A    between atoms: _591  and  _593
REMARK  229  A    between atoms: _593  and  _594
REMARK  230  A    between atoms: _593  and  _596
REMARK  231  A    between atoms: _596  and  _597
REMARK  232  A    between atoms: _602  and  _604
REMARK  233  A    between atoms: _604  and  _605
REMARK  234  A    between atoms: _608  and  _610
REMARK  235  A    between atoms: _610  and  _611
REMARK  236  A    between atoms: _614  and  _615
REMARK  237  A    between atoms: _620  and  _622
REMARK  238  A    between atoms: _622  and  _623
REMARK  239  A    between atoms: _622  and  _625
REMARK  240  A    between atoms: _625  and  _626
REMARK  241  A    between atoms: _629  and  _631
REMARK  242  A    between atoms: _631  and  _632
REMARK  243  A    between atoms: _631  and  _634
REMARK  244  A    between atoms: _634  and  _635
REMARK  245  A    between atoms: _645  and  _647
REMARK  246  A    between atoms: _647  and  _648
REMARK  247  A    between atoms: _647  and  _650
REMARK  248  A    between atoms: _650  and  _651
REMARK  249  A    between atoms: _657  and  _658
REMARK  250  A    between atoms: _663  and  _665
REMARK  251  A    between atoms: _665  and  _666
REMARK  252  A    between atoms: _665  and  _668
REMARK  253  A    between atoms: _668  and  _669
REMARK  254  A    between atoms: _672  and  _674
REMARK  255  A    between atoms: _674  and  _675
REMARK  256  A    between atoms: _674  and  _677
REMARK  257  A    between atoms: _677  and  _678
REMARK  258  A    between atoms: _678  and  _679
REMARK  259  A    between atoms: _682  and  _684
REMARK  260  A    between atoms: _684  and  _685
REMARK  261  A    between atoms: _684  and  _687
REMARK  262  A    between atoms: _687  and  _688
REMARK  263  A    between atoms: _688  and  _689
REMARK  264  A    between atoms: _689  and  _690
REMARK  265  A    between atoms: _690  and  _691
REMARK  266  A    between atoms: _695  and  _697
REMARK  267  A    between atoms: _697  and  _698
REMARK  268  A    between atoms: _700  and  _702
REMARK  269  A    between atoms: _702  and  _703
REMARK  270  A    between atoms: _702  and  _705
REMARK  271  A    between atoms: _705  and  _706
REMARK  272  A    between atoms: _711  and  _713
REMARK  273  A    between atoms: _713  and  _714
REMARK  274  A    between atoms: _713  and  _716
REMARK  275  A    between atoms: _716  and  _717
REMARK  276  A    between atoms: _717  and  _718
REMARK  277  A    between atoms: _718  and  _719
REMARK  278  A    between atoms: _728  and  _730
REMARK  279  A    between atoms: _730  and  _731
REMARK  280  A    between atoms: _730  and  _733
REMARK  281  A    between atoms: _733  and  _734
REMARK  282  A    between atoms: _737  and  _739
REMARK  283  A    between atoms: _739  and  _740
REMARK  284  A    between atoms: _739  and  _742
REMARK  285  A    between atoms: _745  and  _747
REMARK  286  A    between atoms: _747  and  _748
REMARK  287  A    between atoms: _747  and  _750
REMARK  288  A    between atoms: _750  and  _751
REMARK  289  A    between atoms: _751  and  _752
REMARK  290  A    between atoms: _758  and  _759
REMARK  291  A    between atoms: _764  and  _766
REMARK  292  A    between atoms: _766  and  _767
REMARK  293  A    between atoms: _766  and  _769
REMARK  294  A    between atoms: _769  and  _770
REMARK  295  A    between atoms: _773  and  _775
REMARK  296  A    between atoms: _775  and  _776
REMARK  297  A    between atoms: _775  and  _778
REMARK  298  A    between atoms: _778  and  _779
REMARK  299  A    between atoms: _782  and  _784
REMARK  300  A    between atoms: _784  and  _785
REMARK  301  A    between atoms: _784  and  _787
REMARK  302  A    between atoms: _787  and  _788
REMARK  303  A    between atoms: _790  and  _792
REMARK  304  A    between atoms: _792  and  _793
REMARK  305  A    between atoms: _792  and  _795
REMARK  306  A    between atoms: _795  and  _796
REMARK  307  A    between atoms: _796  and  _797
REMARK  308  A    between atoms: _797  and  _798
REMARK  309  A    between atoms: _807  and  _809
REMARK  310  A    between atoms: _809  and  _810
REMARK                            x       y       z     vdW  Elec       q    Type
REMARK                         _______ _______ _______ _____ _____    ______ ____
ROOT
ATOM      1  CB  HIS A   1     -24.902 -14.432 -11.058  0.00  0.00    +0.072 C 
ENDROOT
BRANCH   1   2
ATOM      2  CG  HIS A   1     -26.314 -14.979 -11.055  0.00  0.00    +0.082 A 
ATOM      3  CD2 HIS A   1     -27.011 -15.679 -10.126  0.00  0.00    +0.115 A 
ATOM      4  NE2 HIS A   1     -28.264 -15.913 -10.643  0.00  0.00    -0.221 NA
ATOM      5  CE1 HIS A   1     -28.339 -15.373 -11.844  0.00  0.00    +0.199 A 
ATOM      6  ND1 HIS A   1     -27.178 -14.808 -12.119  0.00  0.00    -0.227 NA
ENDBRANCH   1   2
BRANCH   1   7
ATOM      7  CA  HIS A   1     -24.048 -14.821  -9.823  0.00  0.00    +0.139 C 
BRANCH   7   8
ATOM      8  N   HIS A   1     -24.695 -14.373  -8.589  0.00  0.00    -0.239 NA
ATOM      9  H   HIS A   1     -25.511 -13.730  -8.638  0.00  0.00    +0.142 HD
ENDBRANCH   7   8
BRANCH   7  10
ATOM     10  C   HIS A   1     -22.584 -14.350  -9.991  0.00  0.00    +0.224 C 
ATOM     11  O   HIS A   1     -21.708 -15.151 -10.343  0.00  0.00    -0.287 OA
ENDBRANCH   7  10
ENDBRANCH   1   7
TORSDOF 4
REMARK  Name = ../refined-set-2016/3rt4/3rt4_pocket.pdb
REMARK  310 active torsions:
REMARK  status: ('A' for Active; 'I' for Inactive)
REMARK    1  A    between atoms: _1  and  _3
REMARK    2  A    between atoms: _3  and  _4
REMARK    3  A    between atoms: _3  and  _6
REMARK    4  A    between atoms: _6  and  _7
REMARK    5  A    between atoms: _7  and  _8
REMARK    6  A    between atoms: _8  and  _9
REMARK    7  A    between atoms: _18  and  _20
REMARK    8  A    between atoms: _20  and  _21
REMARK    9  A    between atoms: _20  and  _23
REMARK   10  A    between atoms: _26  and  _28
REMARK   11  A    between atoms: _28  and  _29
REMARK   12  A    between atoms: _28  and  _31
REMARK   13  A    between atoms: _31  and  _32
REMARK   14  A    between atoms: _32  and  _33
REMARK   15  A    between atoms: _33  and  _34
REMARK   16  A    between atoms: _43  and  _45
REMARK   17  A    between atoms: _45  and  _46
REMARK   18  A    between atoms: _45  and  _48
REMARK   19  A    between atoms: _48  and  _49
REMARK   20  A    between atoms: _51  and  _53
REMARK   21  A    between atoms: _53  and  _54
REMARK   22  A    between atoms: _53  and  _56
REMARK   23  A    between atoms: _56  and  _57
REMARK   24  A    between atoms: _62  and  _64
REMARK   25  A    between atoms: _64  and  _65
REMARK   26  A    between atoms: _64  and  _67
REMARK   27  A    between atoms: _67  and  _68
REMARK   28  A    between atoms: _73  and  _74
REMARK   29  A    between atoms: _76  and  _78
REMARK   30  A    between atoms: _78  and  _79
REMARK   31  A    between atoms: _78  and  _81
REMARK   32  A    between atoms: _81  and  _82
REMARK   33  A    between atoms: _82  and  _83
REMARK   34  A    between atoms: _86  and  _88
REMARK   35  A    between atoms: _88  and  _89
REMARK   36  A    between atoms: _88  and  _91
REMARK   37  A    between atoms: _91  and  _92
REMARK   38  A    between atoms: _92  and  _93
REMARK   39  A    between atoms: _93  and  _94
REMARK   40  A    between atoms: _94  and  _95
REMARK   41  A    between atoms: _99  and  _101
REMARK   42  A    between atoms: _101  and  _102
REMARK   43  A    between atoms: _101  and  _104
REMARK   44  A    between atoms: _104  and  _105
REMARK   45  A    between atoms: _110  and  _111
REMARK   46  A    between atoms: _113  and  _115
REMARK   47  A    between atoms: _115  and  _116
REMARK   48  A    between atoms: _115  and  _118
REMARK   49  A    between atoms: _118  and  _119
REMARK   50  A    between atoms: _119  and  _120
REMARK   51  A    between atoms: _120  and  _121
REMARK   52  A    between atoms: _130  and  _132
REMARK   53  A    between atoms: _132  and  _133
REMARK   54  A    between atoms: _136  and  _138
REMARK   55  A    between atoms: _138  and  _139
REMARK   56  A    between atoms: _138  and  _141
REMARK   57  A    between atoms: _141  and  _142
REMARK   58  A    between atoms: _142  and  _258
REMARK   59  A    between atoms: _143  and  _145
REMARK   60  A    between atoms: _145  and  _146
REMARK   61  A    between atoms: _145  and  _148
REMARK   62  A    between atoms: _148  and  _149
REMARK   63  A    between atoms: _149  and  _150
REMARK   64  A    between atoms: _153  and  _155
REMARK   65  A    between atoms: _155  and  _156
REMARK   66  A    between atoms: _155  and  _158
REMARK   67  A    between atoms: _158  and  _159
REMARK   68  A    between atoms: _161  and  _163
REMARK   69  A    between atoms: _163  and  _164
REMARK   70  A    between atoms: _163  and  _166
REMARK   71  A    between atoms: _166  and  _167
REMARK   72  A    between atoms: _172  and  _173
REMARK   73  A    between atoms: _175  and  _177
REMARK   74  A    between atoms: _177  and  _178
REMARK   75  A    between atoms: _177  and  _180
REMARK   76  A    between atoms: _180  and  _181
REMARK   77  A    between atoms: _186  and  _188
REMARK   78  A    between atoms: _188  and  _189
REMARK   79  A    between atoms: _188  and  _191
REMARK   80  A    between atoms: _194  and  _196
REMARK   81  A    between atoms: _196  and  _197
REMARK   82  A    between atoms: _196  and  _199
REMARK   83  A    between atoms: _199  and  _200
REMARK   84  A    between atoms: _200  and  _201
REMARK   85  A    between atoms: _201  and  _202
REMARK   86  A    between atoms: _211  and  _213
REMARK   87  A    between atoms: _213  and  _214
REMARK   88  A    between atoms: _213  and  _216
REMARK   89  A    between atoms: _216  and  _217
REMARK   90  A    between atoms: _222  and  _224
REMARK   91  A    between atoms: _224  and  _225
REMARK   92  A    between atoms: _224  and  _227
REMARK   93  A    between atoms: _227  and  _228
REMARK   94  A    between atoms: _231  and  _233
REMARK   95  A    between atoms: _233  and  _234
REMARK   96  A    between atoms: _236  and  _238
REMARK   97  A    between atoms: _238  and  _239
REMARK   98  A    between atoms: _238  and  _241
REMARK   99  A    between atoms: _241  and  _242
REMARK  100  A    between atoms: _252  and  _254
REMARK  101  A    between atoms: _254  and  _255
REMARK  102  A    between atoms: _254  and  _257
REMARK  103  A    between atoms: _257  and  _258
REMARK  104  A    between atoms: _259  and  _261
REMARK  105  A    between atoms: _261  and  _262
REMARK  106  A    between atoms: _261  and  _264
REMARK  107  A    between atoms: _264  and  _265
REMARK  108  A    between atoms: _268  and  _270
REMARK  109  A    between atoms: _270  and  _271
REMARK  110  A    between atoms: _273  and  _275
REMARK  111  A    between atoms: _275  and  _276
REMARK  112  A    between atoms: _275  and  _278
REMARK  113  A    between atoms: _278  and  _279
REMARK  114  A    between atoms: _284  and  _285
REMARK  115  A    between atoms: _287  and  _289
REMARK  116  A    between atoms: _289  and  _290
REMARK  117  A    between atoms: _289  and  _292
REMARK  118  A    between atoms: _292  and  _293
REMARK  119  A    between atoms: _293  and  _294
REMARK  120  A    between atoms: _294  and  _295
REMARK  121  A    between atoms: _304  and  _306
REMARK  122  A    between atoms: _306  and  _307
REMARK  123  A    between atoms: _306  and  _309
REMARK  124  A    between atoms: _309  and  _310
REMARK  125  A    between atoms: _310  and  _311
REMARK  126  A    between atoms: _311  and  _312
REMARK  127  A    between atoms: _312  and  _313
REMARK  128  A    between atoms: _317  and  _319
REMARK  129  A    between atoms: _319  and  _320
REMARK  130  A    between atoms: _322  and  _324
REMARK  131  A    between atoms: _324  and  _325
REMARK  132  A    between atoms: _328  and  _330
REMARK  133  A    between atoms: _330  and  _331
REMARK  134  A    between atoms: _330  and  _333
REMARK  135  A    between atoms: _333  and  _334
REMARK  136  A    between atoms: _339  and  _341
REMARK  137  A    between atoms: _341  and  _342
REMARK  138  A    between atoms: _345  and  _347
REMARK  139  A    between atoms: _347  and  _348
REMARK  140  A    between atoms: _351  and  _352
REMARK  141  A    between atoms: _357  and  _359
REMARK  142  A    between atoms: _359  and  _360
REMARK  143  A    between atoms: _359  and  _362
REMARK  144  A    between atoms: _362  and  _363
REMARK  145  A    between atoms: _366  and  _368
REMARK  146  A    between atoms: _368  and  _369
REMARK  147  A    between atoms: _368  and  _371
REMARK  148  A    between atoms: _371  and  _372
REMARK  149  A    between atoms: _382  and  _384
REMARK  150  A    between atoms: _384  and  _385
REMARK  151  A    between atoms: _384  and  _387
REMARK  152  A    between atoms: _387  and  _388
REMARK  153  A    between atoms: _394  and  _395
REMARK  154  A    between atoms: _400  and  _402
REMARK  155  A    between atoms: _402  and  _403
REMARK  156  A    between atoms: _402  and  _405
REMARK  157  A    between atoms: _405  and  _406
REMARK  158  A    between atoms: _409  and  _411
REMARK  159  A    between atoms: _411  and  _412
REMARK  160  A    between atoms: _411  and  _414
REMARK  161  A    between atoms: _414  and  _415
REMARK  162  A    between atoms: _417  and  _419
REMARK  163  A    between atoms: _419  and  _420
REMARK  164  A    between atoms: _419  and  _422
REMARK  165  A    between atoms: _422  and  _423
REMARK  166  A    between atoms: _428  and  _430
REMARK  167  A    between atoms: _430  and  _431
REMARK  168  A    between atoms: _430  and  _433
REMARK  169  A    between atoms: _436  and  _438
REMARK  170  A    between atoms: _438  and  _439
REMARK  171  A    between atoms: _438  and  _441
REMARK  172  A    between atoms: _441  and  _442
REMARK  173  A    between atoms: _442  and  _443
REMARK  174  A    between atoms: _449  and  _450
REMARK  175  A    between atoms: _455  and  _457
REMARK  176  A    between atoms: _457  and  _458
REMARK  177  A    between atoms: _457  and  _460
REMARK  178  A    between atoms: _460  and  _461
REMARK  179  A    between atoms: _464  and  _466
REMARK  180  A    between atoms: _466  and  _467
REMARK  181  A    between atoms: _466  and  _469
REMARK  182  A    between atoms: _469  and  _470
REMARK  183  A    between atoms: _473  and  _475
REMARK  184  A    between atoms: _475  and  _476
REMARK  185  A    between atoms: _475  and  _478
REMARK  186  A    between atoms: _478  and  _479
REMARK  187  A    between atoms: _481  and  _483
REMARK  188  A    between atoms: _483  and  _484
REMARK  189  A    between atoms: _483  and  _486
REMARK  190  A    between atoms: _486  and  _487
REMARK  191  A    between atoms: _492  and  _493
REMARK  192  A    between atoms: _495  and  _497
REMARK  193  A    between atoms: _497  and  _498
REMARK  194  A    between atoms: _497  and  _500
REMARK  195  A    between atoms: _500  and  _501
REMARK  196  A    between atoms: _506  and  _508
REMARK  197  A    between atoms: _508  and  _509
REMARK  198  A    between atoms: _508  and  _511
REMARK  199  A    between atoms: _511  and  _512
REMARK  200  A    between atoms: _515  and  _517
REMARK  201  A    between atoms: _517  and  _518
REMARK  202  A    between atoms: _517  and  _520
REMARK  203  A    between atoms: _520  and  _521
REMARK  204  A    between atoms: _531  and  _533
REMARK  205  A    between atoms: _533  and  _534
REMARK  206  A    between atoms: _536  and  _538
REMARK  207  A    between atoms: _538  and  _539
REMARK  208  A    between atoms: _538  and  _541
REMARK  209  A    between atoms: _541  and  _542
REMARK  210  A    between atoms: _547  and  _548
REMARK  211  A    between atoms: _550  and  _552
REMARK  212  A    between atoms: _552  and  _553
REMARK  213  A    between atoms: _552  and  _555
REMARK  214  A    between atoms: _555  and  _556
REMARK  215  A    between atoms: _556  and  _557
REMARK  216  A    between atoms: _557  and  _558
REMARK  217  A    between atoms: _567  and  _569
REMARK  218  A    between atoms: _569  and  _570
REMARK  219  A    between atoms: _569  and  _572
REMARK  220  A    between atoms: _572  and  _573
REMARK  221  A    between atoms: _573  and  _574
REMARK  222  A    between atoms: _574  and  _575
REMARK  223  A    between atoms: _575  and  _576
REMARK  224  A    between atoms: _580  and  _582
REMARK  225  A    between atoms: _582  and  _583
REMARK  226  A    between atoms: _585  and  _587
REMARK  227  A    between atoms: _587  and  _588
REMARK  228  A    between atoms: _591  and  _593
REMARK  229  A    between atoms: _593  and  _594
REMARK  230  A    between atoms: _593  and  _596
REMARK  231  A    between atoms: _596  and  _597
REMARK  232  A    between atoms: _602  and  _604
REMARK  233  A    between atoms: _604  and  _605
REMARK  234  A    between atoms: _608  and  _610
REMARK  235  A    between atoms: _610  and  _611
REMARK  236  A    between atoms: _614  and  _615
REMARK  237  A    between atoms: _620  and  _622
REMARK  238  A    between atoms: _622  and  _623
REMARK  239  A    between atoms: _622  and  _625
REMARK  240  A    between atoms: _625  and  _626
REMARK  241  A    between atoms: _629  and  _631
REMARK  242  A    between atoms: _631  and  _632
REMARK  243  A    between atoms: _631  and  _634
REMARK  244  A    between atoms: _634  and  _635
REMARK  245  A    between atoms: _645  and  _647
REMARK  246  A    between atoms: _647  and  _648
REMARK  247  A    between atoms: _647  and  _650
REMARK  248  A    between atoms: _650  and  _651
REMARK  249  A    between atoms: _657  and  _658
REMARK  250  A    between atoms: _663  and  _665
REMARK  251  A    between atoms: _665  and  _666
REMARK  252  A    between atoms: _665  and  _668
REMARK  253  A    between atoms: _668  and  _669
REMARK  254  A    between atoms: _672  and  _674
REMARK  255  A    between atoms: _674  and  _675
REMARK  256  A    between atoms: _674  and  _677
REMARK  257  A    between atoms: _677  and  _678
REMARK  258  A    between atoms: _678  and  _679
REMARK  259  A    between atoms: _682  and  _684
REMARK  260  A    between atoms: _684  and  _685
REMARK  261  A    between atoms: _684  and  _687
REMARK  262  A    between atoms: _687  and  _688
REMARK  263  A    between atoms: _688  and  _689
REMARK  264  A    between atoms: _689  and  _690
REMARK  265  A    between atoms: _690  and  _691
REMARK  266  A    between atoms: _695  and  _697
REMARK  267  A    between atoms: _697  and  _698
REMARK  268  A    between atoms: _700  and  _702
REMARK  269  A    between atoms: _702  and  _703
REMARK  270  A    between atoms: _702  and  _705
REMARK  271  A    between atoms: _705  and  _706
REMARK  272  A    between atoms: _711  and  _713
REMARK  273  A    between atoms: _713  and  _714
REMARK  274  A    between atoms: _713  and  _716
REMARK  275  A    between atoms: _716  and  _717
REMARK  276  A    between atoms: _717  and  _718
REMARK  277  A    between atoms: _718  and  _719
REMARK  278  A    between atoms: _728  and  _730
REMARK  279  A    between atoms: _730  and  _731
REMARK  280  A    between atoms: _730  and  _733
REMARK  281  A    between atoms: _733  and  _734
REMARK  282  A    between atoms: _737  and  _739
REMARK  283  A    between atoms: _739  and  _740
REMARK  284  A    between atoms: _739  and  _742
REMARK  285  A    between atoms: _745  and  _747
REMARK  286  A    between atoms: _747  and  _748
REMARK  287  A    between atoms: _747  and  _750
REMARK  288  A    between atoms: _750  and  _751
REMARK  289  A    between atoms: _751  and  _752
REMARK  290  A    between atoms: _758  and  _759
REMARK  291  A    between atoms: _764  and  _766
REMARK  292  A    between atoms: _766  and  _767
REMARK  293  A    between atoms: _766  and  _769
REMARK  294  A    between atoms: _769  and  _770
REMARK  295  A    between atoms: _773  and  _775
REMARK  296  A    between atoms: _775  and  _776
REMARK  297  A    between atoms: _775  and  _778
REMARK  298  A    between atoms: _778  and  _779
REMARK  299  A    between atoms: _782  and  _784
REMARK  300  A    between atoms: _784  and  _785
REMARK  301  A    between atoms: _784  and  _787
REMARK  302  A    between atoms: _787  and  _788
REMARK  303  A    between atoms: _790  and  _792
REMARK  304  A    between atoms: _792  and  _793
REMARK  305  A    between atoms: _792  and  _795
REMARK  306  A    between atoms: _795  and  _796
REMARK  307  A    between atoms: _796  and  _797
REMARK  308  A    between atoms: _797  and  _798
REMARK  309  A    between atoms: _807  and  _809
REMARK  310  A    between atoms: _809  and  _810
REMARK                            x       y       z     vdW  Elec       q    Type
REMARK                         _______ _______ _______ _____ _____    ______ ____
ROOT
ATOM      1  CA  LEU A   1     -20.571 -18.126  -8.975  0.00  0.00    +0.133 C 
ENDROOT
BRANCH   1   2
ATOM      2  N   LEU A   1     -20.815 -17.223  -7.867  0.00  0.00    -0.239 NA
ATOM      3  H   LEU A   1     -21.558 -16.499  -7.938  0.00  0.00    +0.142 HD
ENDBRANCH   1   2
BRANCH   1   4
ATOM      4  C   LEU A   1     -19.448 -17.729  -9.908  0.00  0.00    +0.224 C 
ATOM      5  O   LEU A   1     -19.090 -18.521 -10.775  0.00  0.00    -0.287 OA
ENDBRANCH   1   4
BRANCH   1   6
ATOM      6  CB  LEU A   1     -21.889 -18.406  -9.740  0.00  0.00    +0.025 C 
BRANCH   6   7
ATOM      7  CG  LEU A   1     -23.131 -18.794  -8.883  0.00  0.00    +0.002 C 
ATOM      8  CD2 LEU A   1     -22.851 -20.005  -8.019  0.00  0.00    +0.000 C 
ATOM      9  CD1 LEU A   1     -24.320 -19.077  -9.781  0.00  0.00    +0.000 C 
ENDBRANCH   6   7
ENDBRANCH   1   6
TORSDOF 4
REMARK  Name = ../refined-set-2016/3rt4/3rt4_pocket.pdb
REMARK  310 active torsions:
REMARK  status: ('A' for Active; 'I' for Inactive)
REMARK    1  A    between atoms: _1  and  _3
REMARK    2  A    between atoms: _3  and  _4
REMARK    3  A    between atoms: _3  and  _6
REMARK    4  A    between atoms: _6  and  _7
REMARK    5  A    between atoms: _7  and  _8
REMARK    6  A    between atoms: _8  and  _9
REMARK    7  A    between atoms: _18  and  _20
REMARK    8  A    between atoms: _20  and  _21
REMARK    9  A    between atoms: _20  and  _23
REMARK   10  A    between atoms: _26  and  _28
REMARK   11  A    between atoms: _28  and  _29
REMARK   12  A    between atoms: _28  and  _31
REMARK   13  A    between atoms: _31  and  _32
REMARK   14  A    between atoms: _32  and  _33
REMARK   15  A    between atoms: _33  and  _34
REMARK   16  A    between atoms: _43  and  _45
REMARK   17  A    between atoms: _45  and  _46
REMARK   18  A    between atoms: _45  and  _48
REMARK   19  A    between atoms: _48  and  _49
REMARK   20  A    between atoms: _51  and  _53
REMARK   21  A    between atoms: _53  and  _54
REMARK   22  A    between atoms: _53  and  _56
REMARK   23  A    between atoms: _56  and  _57
REMARK   24  A    between atoms: _62  and  _64
REMARK   25  A    between atoms: _64  and  _65
REMARK   26  A    between atoms: _64  and  _67
REMARK   27  A    between atoms: _67  and  _68
REMARK   28  A    between atoms: _73  and  _74
REMARK   29  A    between atoms: _76  and  _78
REMARK   30  A    between atoms: _78  and  _79
REMARK   31  A    between atoms: _78  and  _81
REMARK   32  A    between atoms: _81  and  _82
REMARK   33  A    between atoms: _82  and  _83
REMARK   34  A    between atoms: _86  and  _88
REMARK   35  A    between atoms: _88  and  _89
REMARK   36  A    between atoms: _88  and  _91
REMARK   37  A    between atoms: _91  and  _92
REMARK   38  A    between atoms: _92  and  _93
REMARK   39  A    between atoms: _93  and  _94
REMARK   40  A    between atoms: _94  and  _95
REMARK   41  A    between atoms: _99  and  _101
REMARK   42  A    between atoms: _101  and  _102
REMARK   43  A    between atoms: _101  and  _104
REMARK   44  A    between atoms: _104  and  _105
REMARK   45  A    between atoms: _110  and  _111
REMARK   46  A    between atoms: _113  and  _115
REMARK   47  A    between atoms: _115  and  _116
REMARK   48  A    between atoms: _115  and  _118
REMARK   49  A    between atoms: _118  and  _119
REMARK   50  A    between atoms: _119  and  _120
REMARK   51  A    between atoms: _120  and  _121
REMARK   52  A    between atoms: _130  and  _132
REMARK   53  A    between atoms: _132  and  _133
REMARK   54  A    between atoms: _136  and  _138
REMARK   55  A    between atoms: _138  and  _139
REMARK   56  A    between atoms: _138  and  _141
REMARK   57  A    between atoms: _141  and  _142
REMARK   58  A    between atoms: _142  and  _258
REMARK   59  A    between atoms: _143  and  _145
REMARK   60  A    between atoms: _145  and  _146
REMARK   61  A    between atoms: _145  and  _148
REMARK   62  A    between atoms: _148  and  _149
REMARK   63  A    between atoms: _149  and  _150
REMARK   64  A    between atoms: _153  and  _155
REMARK   65  A    between atoms: _155  and  _156
REMARK   66  A    between atoms: _155  and  _158
REMARK   67  A    between atoms: _158  and  _159
REMARK   68  A    between atoms: _161  and  _163
REMARK   69  A    between atoms: _163  and  _164
REMARK   70  A    between atoms: _163  and  _166
REMARK   71  A    between atoms: _166  and  _167
REMARK   72  A    between atoms: _172  and  _173
REMARK   73  A    between atoms: _175  and  _177
REMARK   74  A    between atoms: _177  and  _178
REMARK   75  A    between atoms: _177  and  _180
REMARK   76  A    between atoms: _180  and  _181
REMARK   77  A    between atoms: _186  and  _188
REMARK   78  A    between atoms: _188  and  _189
REMARK   79  A    between atoms: _188  and  _191
REMARK   80  A    between atoms: _194  and  _196
REMARK   81  A    between atoms: _196  and  _197
REMARK   82  A    between atoms: _196  and  _199
REMARK   83  A    between atoms: _199  and  _200
REMARK   84  A    between atoms: _200  and  _201
REMARK   85  A    between atoms: _201  and  _202
REMARK   86  A    between atoms: _211  and  _213
REMARK   87  A    between atoms: _213  and  _214
REMARK   88  A    between atoms: _213  and  _216
REMARK   89  A    between atoms: _216  and  _217
REMARK   90  A    between atoms: _222  and  _224
REMARK   91  A    between atoms: _224  and  _225
REMARK   92  A    between atoms: _224  and  _227
REMARK   93  A    between atoms: _227  and  _228
REMARK   94  A    between atoms: _231  and  _233
REMARK   95  A    between atoms: _233  and  _234
REMARK   96  A    between atoms: _236  and  _238
REMARK   97  A    between atoms: _238  and  _239
REMARK   98  A    between atoms: _238  and  _241
REMARK   99  A    between atoms: _241  and  _242
REMARK  100  A    between atoms: _252  and  _254
REMARK  101  A    between atoms: _254  and  _255
REMARK  102  A    between atoms: _254  and  _257
REMARK  103  A    between atoms: _257  and  _258
REMARK  104  A    between atoms: _259  and  _261
REMARK  105  A    between atoms: _261  and  _262
REMARK  106  A    between atoms: _261  and  _264
REMARK  107  A    between atoms: _264  and  _265
REMARK  108  A    between atoms: _268  and  _270
REMARK  109  A    between atoms: _270  and  _271
REMARK  110  A    between atoms: _273  and  _275
REMARK  111  A    between atoms: _275  and  _276
REMARK  112  A    between atoms: _275  and  _278
REMARK  113  A    between atoms: _278  and  _279
REMARK  114  A    between atoms: _284  and  _285
REMARK  115  A    between atoms: _287  and  _289
REMARK  116  A    between atoms: _289  and  _290
REMARK  117  A    between atoms: _289  and  _292
REMARK  118  A    between atoms: _292  and  _293
REMARK  119  A    between atoms: _293  and  _294
REMARK  120  A    between atoms: _294  and  _295
REMARK  121  A    between atoms: _304  and  _306
REMARK  122  A    between atoms: _306  and  _307
REMARK  123  A    between atoms: _306  and  _309
REMARK  124  A    between atoms: _309  and  _310
REMARK  125  A    between atoms: _310  and  _311
REMARK  126  A    between atoms: _311  and  _312
REMARK  127  A    between atoms: _312  and  _313
REMARK  128  A    between atoms: _317  and  _319
REMARK  129  A    between atoms: _319  and  _320
REMARK  130  A    between atoms: _322  and  _324
REMARK  131  A    between atoms: _324  and  _325
REMARK  132  A    between atoms: _328  and  _330
REMARK  133  A    between atoms: _330  and  _331
REMARK  134  A    between atoms: _330  and  _333
REMARK  135  A    between atoms: _333  and  _334
REMARK  136  A    between atoms: _339  and  _341
REMARK  137  A    between atoms: _341  and  _342
REMARK  138  A    between atoms: _345  and  _347
REMARK  139  A    between atoms: _347  and  _348
REMARK  140  A    between atoms: _351  and  _352
REMARK  141  A    between atoms: _357  and  _359
REMARK  142  A    between atoms: _359  and  _360
REMARK  143  A    between atoms: _359  and  _362
REMARK  144  A    between atoms: _362  and  _363
REMARK  145  A    between atoms: _366  and  _368
REMARK  146  A    between atoms: _368  and  _369
REMARK  147  A    between atoms: _368  and  _371
REMARK  148  A    between atoms: _371  and  _372
REMARK  149  A    between atoms: _382  and  _384
REMARK  150  A    between atoms: _384  and  _385
REMARK  151  A    between atoms: _384  and  _387
REMARK  152  A    between atoms: _387  and  _388
REMARK  153  A    between atoms: _394  and  _395
REMARK  154  A    between atoms: _400  and  _402
REMARK  155  A    between atoms: _402  and  _403
REMARK  156  A    between atoms: _402  and  _405
REMARK  157  A    between atoms: _405  and  _406
REMARK  158  A    between atoms: _409  and  _411
REMARK  159  A    between atoms: _411  and  _412
REMARK  160  A    between atoms: _411  and  _414
REMARK  161  A    between atoms: _414  and  _415
REMARK  162  A    between atoms: _417  and  _419
REMARK  163  A    between atoms: _419  and  _420
REMARK  164  A    between atoms: _419  and  _422
REMARK  165  A    between atoms: _422  and  _423
REMARK  166  A    between atoms: _428  and  _430
REMARK  167  A    between atoms: _430  and  _431
REMARK  168  A    between atoms: _430  and  _433
REMARK  169  A    between atoms: _436  and  _438
REMARK  170  A    between atoms: _438  and  _439
REMARK  171  A    between atoms: _438  and  _441
REMARK  172  A    between atoms: _441  and  _442
REMARK  173  A    between atoms: _442  and  _443
REMARK  174  A    between atoms: _449  and  _450
REMARK  175  A    between atoms: _455  and  _457
REMARK  176  A    between atoms: _457  and  _458
REMARK  177  A    between atoms: _457  and  _460
REMARK  178  A    between atoms: _460  and  _461
REMARK  179  A    between atoms: _464  and  _466
REMARK  180  A    between atoms: _466  and  _467
REMARK  181  A    between atoms: _466  and  _469
REMARK  182  A    between atoms: _469  and  _470
REMARK  183  A    between atoms: _473  and  _475
REMARK  184  A    between atoms: _475  and  _476
REMARK  185  A    between atoms: _475  and  _478
REMARK  186  A    between atoms: _478  and  _479
REMARK  187  A    between atoms: _481  and  _483
REMARK  188  A    between atoms: _483  and  _484
REMARK  189  A    between atoms: _483  and  _486
REMARK  190  A    between atoms: _486  and  _487
REMARK  191  A    between atoms: _492  and  _493
REMARK  192  A    between atoms: _495  and  _497
REMARK  193  A    between atoms: _497  and  _498
REMARK  194  A    between atoms: _497  and  _500
REMARK  195  A    between atoms: _500  and  _501
REMARK  196  A    between atoms: _506  and  _508
REMARK  197  A    between atoms: _508  and  _509
REMARK  198  A    between atoms: _508  and  _511
REMARK  199  A    between atoms: _511  and  _512
REMARK  200  A    between atoms: _515  and  _517
REMARK  201  A    between atoms: _517  and  _518
REMARK  202  A    between atoms: _517  and  _520
REMARK  203  A    between atoms: _520  and  _521
REMARK  204  A    between atoms: _531  and  _533
REMARK  205  A    between atoms: _533  and  _534
REMARK  206  A    between atoms: _536  and  _538
REMARK  207  A    between atoms: _538  and  _539
REMARK  208  A    between atoms: _538  and  _541
REMARK  209  A    between atoms: _541  and  _542
REMARK  210  A    between atoms: _547  and  _548
REMARK  211  A    between atoms: _550  and  _552
REMARK  212  A    between atoms: _552  and  _553
REMARK  213  A    between atoms: _552  and  _555
REMARK  214  A    between atoms: _555  and  _556
REMARK  215  A    between atoms: _556  and  _557
REMARK  216  A    between atoms: _557  and  _558
REMARK  217  A    between atoms: _567  and  _569
REMARK  218  A    between atoms: _569  and  _570
REMARK  219  A    between atoms: _569  and  _572
REMARK  220  A    between atoms: _572  and  _573
REMARK  221  A    between atoms: _573  and  _574
REMARK  222  A    between atoms: _574  and  _575
REMARK  223  A    between atoms: _575  and  _576
REMARK  224  A    between atoms: _580  and  _582
REMARK  225  A    between atoms: _582  and  _583
REMARK  226  A    between atoms: _585  and  _587
REMARK  227  A    between atoms: _587  and  _588
REMARK  228  A    between atoms: _591  and  _593
REMARK  229  A    between atoms: _593  and  _594
REMARK  230  A    between atoms: _593  and  _596
REMARK  231  A    between atoms: _596  and  _597
REMARK  232  A    between atoms: _602  and  _604
REMARK  233  A    between atoms: _604  and  _605
REMARK  234  A    between atoms: _608  and  _610
REMARK  235  A    between atoms: _610  and  _611
REMARK  236  A    between atoms: _614  and  _615
REMARK  237  A    between atoms: _620  and  _622
REMARK  238  A    between atoms: _622  and  _623
REMARK  239  A    between atoms: _622  and  _625
REMARK  240  A    between atoms: _625  and  _626
REMARK  241  A    between atoms: _629  and  _631
REMARK  242  A    between atoms: _631  and  _632
REMARK  243  A    between atoms: _631  and  _634
REMARK  244  A    between atoms: _634  and  _635
REMARK  245  A    between atoms: _645  and  _647
REMARK  246  A    between atoms: _647  and  _648
REMARK  247  A    between atoms: _647  and  _650
REMARK  248  A    between atoms: _650  and  _651
REMARK  249  A    between atoms: _657  and  _658
REMARK  250  A    between atoms: _663  and  _665
REMARK  251  A    between atoms: _665  and  _666
REMARK  252  A    between atoms: _665  and  _668
REMARK  253  A    between atoms: _668  and  _669
REMARK  254  A    between atoms: _672  and  _674
REMARK  255  A    between atoms: _674  and  _675
REMARK  256  A    between atoms: _674  and  _677
REMARK  257  A    between atoms: _677  and  _678
REMARK  258  A    between atoms: _678  and  _679
REMARK  259  A    between atoms: _682  and  _684
REMARK  260  A    between atoms: _684  and  _685
REMARK  261  A    between atoms: _684  and  _687
REMARK  262  A    between atoms: _687  and  _688
REMARK  263  A    between atoms: _688  and  _689
REMARK  264  A    between atoms: _689  and  _690
REMARK  265  A    between atoms: _690  and  _691
REMARK  266  A    between atoms: _695  and  _697
REMARK  267  A    between atoms: _697  and  _698
REMARK  268  A    between atoms: _700  and  _702
REMARK  269  A    between atoms: _702  and  _703
REMARK  270  A    between atoms: _702  and  _705
REMARK  271  A    between atoms: _705  and  _706
REMARK  272  A    between atoms: _711  and  _713
REMARK  273  A    between atoms: _713  and  _714
REMARK  274  A    between atoms: _713  and  _716
REMARK  275  A    between atoms: _716  and  _717
REMARK  276  A    between atoms: _717  and  _718
REMARK  277  A    between atoms: _718  and  _719
REMARK  278  A    between atoms: _728  and  _730
REMARK  279  A    between atoms: _730  and  _731
REMARK  280  A    between atoms: _730  and  _733
REMARK  281  A    between atoms: _733  and  _734
REMARK  282  A    between atoms: _737  and  _739
REMARK  283  A    between atoms: _739  and  _740
REMARK  284  A    between atoms: _739  and  _742
REMARK  285  A    between atoms: _745  and  _747
REMARK  286  A    between atoms: _747  and  _748
REMARK  287  A    between atoms: _747  and  _750
REMARK  288  A    between atoms: _750  and  _751
REMARK  289  A    between atoms: _751  and  _752
REMARK  290  A    between atoms: _758  and  _759
REMARK  291  A    between atoms: _764  and  _766
REMARK  292  A    between atoms: _766  and  _767
REMARK  293  A    between atoms: _766  and  _769
REMARK  294  A    between atoms: _769  and  _770
REMARK  295  A    between atoms: _773  and  _775
REMARK  296  A    between atoms: _775  and  _776
REMARK  297  A    between atoms: _775  and  _778
REMARK  298  A    between atoms: _778  and  _779
REMARK  299  A    between atoms: _782  and  _784
REMARK  300  A    between atoms: _784  and  _785
REMARK  301  A    between atoms: _784  and  _787
REMARK  302  A    between atoms: _787  and  _788
REMARK  303  A    between atoms: _790  and  _792
REMARK  304  A    between atoms: _792  and  _793
REMARK  305  A    between atoms: _792  and  _795
REMARK  306  A    between atoms: _795  and  _796
REMARK  307  A    between atoms: _796  and  _797
REMARK  308  A    between atoms: _797  and  _798
REMARK  309  A    between atoms: _807  and  _809
REMARK  310  A    between atoms: _809  and  _810
REMARK                            x       y       z     vdW  Elec       q    Type
REMARK                         _______ _______ _______ _____ _____    ______ ____
ROOT
ATOM      1  CG  TRP A   1     -21.691 -16.782 -13.535  0.00  0.00    -0.002 A 
ATOM      2  CD1 TRP A   1     -20.837 -17.844 -13.503  0.00  0.00    +0.068 A 
ATOM      3  NE1 TRP A   1     -21.534 -19.015 -13.654  0.00  0.00    -0.352 N 
ATOM      4  HE1 TRP A   1     -21.119 -19.969 -13.673  0.00  0.00    +0.166 HD
ATOM      5  CE2 TRP A   1     -22.865 -18.722 -13.775  0.00  0.00    +0.056 A 
ATOM      6  CZ2 TRP A   1     -23.963 -19.565 -13.949  0.00  0.00    +0.017 A 
ATOM      7  CH2 TRP A   1     -25.199 -18.975 -14.048  0.00  0.00    +0.001 A 
ATOM      8  CZ3 TRP A   1     -25.359 -17.583 -13.979  0.00  0.00    +0.000 A 
ATOM      9  CE3 TRP A   1     -24.268 -16.747 -13.808  0.00  0.00    +0.001 A 
ATOM     10  CD2 TRP A   1     -22.995 -17.317 -13.707  0.00  0.00    +0.013 A 
ENDROOT
BRANCH   1  11
ATOM     11  CB  TRP A   1     -21.340 -15.332 -13.468  0.00  0.00    +0.053 C 
BRANCH  11  12
ATOM     12  CA  TRP A   1     -19.840 -15.068 -13.461  0.00  0.00    +0.137 C 
BRANCH  12  13
ATOM     13  N   TRP A   1     -19.332 -15.420 -12.144  0.00  0.00    -0.239 NA
ATOM     14  H   TRP A   1     -20.017 -15.539 -11.370  0.00  0.00    +0.142 HD
ENDBRANCH  12  13
BRANCH  12  15
ATOM     15  C   TRP A   1     -19.533 -13.634 -13.870  0.00  0.00    +0.224 C 
ATOM     16  O   TRP A   1     -19.327 -12.781 -13.010  0.00  0.00    -0.287 OA
ENDBRANCH  12  15
ENDBRANCH  11  12
ENDBRANCH   1  11
TORSDOF 4
REMARK  Name = ../refined-set-2016/3rt4/3rt4_pocket.pdb
REMARK  310 active torsions:
REMARK  status: ('A' for Active; 'I' for Inactive)
REMARK    1  A    between atoms: _1  and  _3
REMARK    2  A    between atoms: _3  and  _4
REMARK    3  A    between atoms: _3  and  _6
REMARK    4  A    between atoms: _6  and  _7
REMARK    5  A    between atoms: _7  and  _8
REMARK    6  A    between atoms: _8  and  _9
REMARK    7  A    between atoms: _18  and  _20
REMARK    8  A    between atoms: _20  and  _21
REMARK    9  A    between atoms: _20  and  _23
REMARK   10  A    between atoms: _26  and  _28
REMARK   11  A    between atoms: _28  and  _29
REMARK   12  A    between atoms: _28  and  _31
REMARK   13  A    between atoms: _31  and  _32
REMARK   14  A    between atoms: _32  and  _33
REMARK   15  A    between atoms: _33  and  _34
REMARK   16  A    between atoms: _43  and  _45
REMARK   17  A    between atoms: _45  and  _46
REMARK   18  A    between atoms: _45  and  _48
REMARK   19  A    between atoms: _48  and  _49
REMARK   20  A    between atoms: _51  and  _53
REMARK   21  A    between atoms: _53  and  _54
REMARK   22  A    between atoms: _53  and  _56
REMARK   23  A    between atoms: _56  and  _57
REMARK   24  A    between atoms: _62  and  _64
REMARK   25  A    between atoms: _64  and  _65
REMARK   26  A    between atoms: _64  and  _67
REMARK   27  A    between atoms: _67  and  _68
REMARK   28  A    between atoms: _73  and  _74
REMARK   29  A    between atoms: _76  and  _78
REMARK   30  A    between atoms: _78  and  _79
REMARK   31  A    between atoms: _78  and  _81
REMARK   32  A    between atoms: _81  and  _82
REMARK   33  A    between atoms: _82  and  _83
REMARK   34  A    between atoms: _86  and  _88
REMARK   35  A    between atoms: _88  and  _89
REMARK   36  A    between atoms: _88  and  _91
REMARK   37  A    between atoms: _91  and  _92
REMARK   38  A    between atoms: _92  and  _93
REMARK   39  A    between atoms: _93  and  _94
REMARK   40  A    between atoms: _94  and  _95
REMARK   41  A    between atoms: _99  and  _101
REMARK   42  A    between atoms: _101  and  _102
REMARK   43  A    between atoms: _101  and  _104
REMARK   44  A    between atoms: _104  and  _105
REMARK   45  A    between atoms: _110  and  _111
REMARK   46  A    between atoms: _113  and  _115
REMARK   47  A    between atoms: _115  and  _116
REMARK   48  A    between atoms: _115  and  _118
REMARK   49  A    between atoms: _118  and  _119
REMARK   50  A    between atoms: _119  and  _120
REMARK   51  A    between atoms: _120  and  _121
REMARK   52  A    between atoms: _130  and  _132
REMARK   53  A    between atoms: _132  and  _133
REMARK   54  A    between atoms: _136  and  _138
REMARK   55  A    between atoms: _138  and  _139
REMARK   56  A    between atoms: _138  and  _141
REMARK   57  A    between atoms: _141  and  _142
REMARK   58  A    between atoms: _142  and  _258
REMARK   59  A    between atoms: _143  and  _145
REMARK   60  A    between atoms: _145  and  _146
REMARK   61  A    between atoms: _145  and  _148
REMARK   62  A    between atoms: _148  and  _149
REMARK   63  A    between atoms: _149  and  _150
REMARK   64  A    between atoms: _153  and  _155
REMARK   65  A    between atoms: _155  and  _156
REMARK   66  A    between atoms: _155  and  _158
REMARK   67  A    between atoms: _158  and  _159
REMARK   68  A    between atoms: _161  and  _163
REMARK   69  A    between atoms: _163  and  _164
REMARK   70  A    between atoms: _163  and  _166
REMARK   71  A    between atoms: _166  and  _167
REMARK   72  A    between atoms: _172  and  _173
REMARK   73  A    between atoms: _175  and  _177
REMARK   74  A    between atoms: _177  and  _178
REMARK   75  A    between atoms: _177  and  _180
REMARK   76  A    between atoms: _180  and  _181
REMARK   77  A    between atoms: _186  and  _188
REMARK   78  A    between atoms: _188  and  _189
REMARK   79  A    between atoms: _188  and  _191
REMARK   80  A    between atoms: _194  and  _196
REMARK   81  A    between atoms: _196  and  _197
REMARK   82  A    between atoms: _196  and  _199
REMARK   83  A    between atoms: _199  and  _200
REMARK   84  A    between atoms: _200  and  _201
REMARK   85  A    between atoms: _201  and  _202
REMARK   86  A    between atoms: _211  and  _213
REMARK   87  A    between atoms: _213  and  _214
REMARK   88  A    between atoms: _213  and  _216
REMARK   89  A    between atoms: _216  and  _217
REMARK   90  A    between atoms: _222  and  _224
REMARK   91  A    between atoms: _224  and  _225
REMARK   92  A    between atoms: _224  and  _227
REMARK   93  A    between atoms: _227  and  _228
REMARK   94  A    between atoms: _231  and  _233
REMARK   95  A    between atoms: _233  and  _234
REMARK   96  A    between atoms: _236  and  _238
REMARK   97  A    between atoms: _238  and  _239
REMARK   98  A    between atoms: _238  and  _241
REMARK   99  A    between atoms: _241  and  _242
REMARK  100  A    between atoms: _252  and  _254
REMARK  101  A    between atoms: _254  and  _255
REMARK  102  A    between atoms: _254  and  _257
REMARK  103  A    between atoms: _257  and  _258
REMARK  104  A    between atoms: _259  and  _261
REMARK  105  A    between atoms: _261  and  _262
REMARK  106  A    between atoms: _261  and  _264
REMARK  107  A    between atoms: _264  and  _265
REMARK  108  A    between atoms: _268  and  _270
REMARK  109  A    between atoms: _270  and  _271
REMARK  110  A    between atoms: _273  and  _275
REMARK  111  A    between atoms: _275  and  _276
REMARK  112  A    between atoms: _275  and  _278
REMARK  113  A    between atoms: _278  and  _279
REMARK  114  A    between atoms: _284  and  _285
REMARK  115  A    between atoms: _287  and  _289
REMARK  116  A    between atoms: _289  and  _290
REMARK  117  A    between atoms: _289  and  _292
REMARK  118  A    between atoms: _292  and  _293
REMARK  119  A    between atoms: _293  and  _294
REMARK  120  A    between atoms: _294  and  _295
REMARK  121  A    between atoms: _304  and  _306
REMARK  122  A    between atoms: _306  and  _307
REMARK  123  A    between atoms: _306  and  _309
REMARK  124  A    between atoms: _309  and  _310
REMARK  125  A    between atoms: _310  and  _311
REMARK  126  A    between atoms: _311  and  _312
REMARK  127  A    between atoms: _312  and  _313
REMARK  128  A    between atoms: _317  and  _319
REMARK  129  A    between atoms: _319  and  _320
REMARK  130  A    between atoms: _322  and  _324
REMARK  131  A    between atoms: _324  and  _325
REMARK  132  A    between atoms: _328  and  _330
REMARK  133  A    between atoms: _330  and  _331
REMARK  134  A    between atoms: _330  and  _333
REMARK  135  A    between atoms: _333  and  _334
REMARK  136  A    between atoms: _339  and  _341
REMARK  137  A    between atoms: _341  and  _342
REMARK  138  A    between atoms: _345  and  _347
REMARK  139  A    between atoms: _347  and  _348
REMARK  140  A    between atoms: _351  and  _352
REMARK  141  A    between atoms: _357  and  _359
REMARK  142  A    between atoms: _359  and  _360
REMARK  143  A    between atoms: _359  and  _362
REMARK  144  A    between atoms: _362  and  _363
REMARK  145  A    between atoms: _366  and  _368
REMARK  146  A    between atoms: _368  and  _369
REMARK  147  A    between atoms: _368  and  _371
REMARK  148  A    between atoms: _371  and  _372
REMARK  149  A    between atoms: _382  and  _384
REMARK  150  A    between atoms: _384  and  _385
REMARK  151  A    between atoms: _384  and  _387
REMARK  152  A    between atoms: _387  and  _388
REMARK  153  A    between atoms: _394  and  _395
REMARK  154  A    between atoms: _400  and  _402
REMARK  155  A    between atoms: _402  and  _403
REMARK  156  A    between atoms: _402  and  _405
REMARK  157  A    between atoms: _405  and  _406
REMARK  158  A    between atoms: _409  and  _411
REMARK  159  A    between atoms: _411  and  _412
REMARK  160  A    between atoms: _411  and  _414
REMARK  161  A    between atoms: _414  and  _415
REMARK  162  A    between atoms: _417  and  _419
REMARK  163  A    between atoms: _419  and  _420
REMARK  164  A    between atoms: _419  and  _422
REMARK  165  A    between atoms: _422  and  _423
REMARK  166  A    between atoms: _428  and  _430
REMARK  167  A    between atoms: _430  and  _431
REMARK  168  A    between atoms: _430  and  _433
REMARK  169  A    between atoms: _436  and  _438
REMARK  170  A    between atoms: _438  and  _439
REMARK  171  A    between atoms: _438  and  _441
REMARK  172  A    between atoms: _441  and  _442
REMARK  173  A    between atoms: _442  and  _443
REMARK  174  A    between atoms: _449  and  _450
REMARK  175  A    between atoms: _455  and  _457
REMARK  176  A    between atoms: _457  and  _458
REMARK  177  A    between atoms: _457  and  _460
REMARK  178  A    between atoms: _460  and  _461
REMARK  179  A    between atoms: _464  and  _466
REMARK  180  A    between atoms: _466  and  _467
REMARK  181  A    between atoms: _466  and  _469
REMARK  182  A    between atoms: _469  and  _470
REMARK  183  A    between atoms: _473  and  _475
REMARK  184  A    between atoms: _475  and  _476
REMARK  185  A    between atoms: _475  and  _478
REMARK  186  A    between atoms: _478  and  _479
REMARK  187  A    between atoms: _481  and  _483
REMARK  188  A    between atoms: _483  and  _484
REMARK  189  A    between atoms: _483  and  _486
REMARK  190  A    between atoms: _486  and  _487
REMARK  191  A    between atoms: _492  and  _493
REMARK  192  A    between atoms: _495  and  _497
REMARK  193  A    between atoms: _497  and  _498
REMARK  194  A    between atoms: _497  and  _500
REMARK  195  A    between atoms: _500  and  _501
REMARK  196  A    between atoms: _506  and  _508
REMARK  197  A    between atoms: _508  and  _509
REMARK  198  A    between atoms: _508  and  _511
REMARK  199  A    between atoms: _511  and  _512
REMARK  200  A    between atoms: _515  and  _517
REMARK  201  A    between atoms: _517  and  _518
REMARK  202  A    between atoms: _517  and  _520
REMARK  203  A    between atoms: _520  and  _521
REMARK  204  A    between atoms: _531  and  _533
REMARK  205  A    between atoms: _533  and  _534
REMARK  206  A    between atoms: _536  and  _538
REMARK  207  A    between atoms: _538  and  _539
REMARK  208  A    between atoms: _538  and  _541
REMARK  209  A    between atoms: _541  and  _542
REMARK  210  A    between atoms: _547  and  _548
REMARK  211  A    between atoms: _550  and  _552
REMARK  212  A    between atoms: _552  and  _553
REMARK  213  A    between atoms: _552  and  _555
REMARK  214  A    between atoms: _555  and  _556
REMARK  215  A    between atoms: _556  and  _557
REMARK  216  A    between atoms: _557  and  _558
REMARK  217  A    between atoms: _567  and  _569
REMARK  218  A    between atoms: _569  and  _570
REMARK  219  A    between atoms: _569  and  _572
REMARK  220  A    between atoms: _572  and  _573
REMARK  221  A    between atoms: _573  and  _574
REMARK  222  A    between atoms: _574  and  _575
REMARK  223  A    between atoms: _575  and  _576
REMARK  224  A    between atoms: _580  and  _582
REMARK  225  A    between atoms: _582  and  _583
REMARK  226  A    between atoms: _585  and  _587
REMARK  227  A    between atoms: _587  and  _588
REMARK  228  A    between atoms: _591  and  _593
REMARK  229  A    between atoms: _593  and  _594
REMARK  230  A    between atoms: _593  and  _596
REMARK  231  A    between atoms: _596  and  _597
REMARK  232  A    between atoms: _602  and  _604
REMARK  233  A    between atoms: _604  and  _605
REMARK  234  A    between atoms: _608  and  _610
REMARK  235  A    between atoms: _610  and  _611
REMARK  236  A    between atoms: _614  and  _615
REMARK  237  A    between atoms: _620  and  _622
REMARK  238  A    between atoms: _622  and  _623
REMARK  239  A    between atoms: _622  and  _625
REMARK  240  A    between atoms: _625  and  _626
REMARK  241  A    between atoms: _629  and  _631
REMARK  242  A    between atoms: _631  and  _632
REMARK  243  A    between atoms: _631  and  _634
REMARK  244  A    between atoms: _634  and  _635
REMARK  245  A    between atoms: _645  and  _647
REMARK  246  A    between atoms: _647  and  _648
REMARK  247  A    between atoms: _647  and  _650
REMARK  248  A    between atoms: _650  and  _651
REMARK  249  A    between atoms: _657  and  _658
REMARK  250  A    between atoms: _663  and  _665
REMARK  251  A    between atoms: _665  and  _666
REMARK  252  A    between atoms: _665  and  _668
REMARK  253  A    between atoms: _668  and  _669
REMARK  254  A    between atoms: _672  and  _674
REMARK  255  A    between atoms: _674  and  _675
REMARK  256  A    between atoms: _674  and  _677
REMARK  257  A    between atoms: _677  and  _678
REMARK  258  A    between atoms: _678  and  _679
REMARK  259  A    between atoms: _682  and  _684
REMARK  260  A    between atoms: _684  and  _685
REMARK  261  A    between atoms: _684  and  _687
REMARK  262  A    between atoms: _687  and  _688
REMARK  263  A    between atoms: _688  and  _689
REMARK  264  A    between atoms: _689  and  _690
REMARK  265  A    between atoms: _690  and  _691
REMARK  266  A    between atoms: _695  and  _697
REMARK  267  A    between atoms: _697  and  _698
REMARK  268  A    between atoms: _700  and  _702
REMARK  269  A    between atoms: _702  and  _703
REMARK  270  A    between atoms: _702  and  _705
REMARK  271  A    between atoms: _705  and  _706
REMARK  272  A    between atoms: _711  and  _713
REMARK  273  A    between atoms: _713  and  _714
REMARK  274  A    between atoms: _713  and  _716
REMARK  275  A    between atoms: _716  and  _717
REMARK  276  A    between atoms: _717  and  _718
REMARK  277  A    between atoms: _718  and  _719
REMARK  278  A    between atoms: _728  and  _730
REMARK  279  A    between atoms: _730  and  _731
REMARK  280  A    between atoms: _730  and  _733
REMARK  281  A    between atoms: _733  and  _734
REMARK  282  A    between atoms: _737  and  _739
REMARK  283  A    between atoms: _739  and  _740
REMARK  284  A    between atoms: _739  and  _742
REMARK  285  A    between atoms: _745  and  _747
REMARK  286  A    between atoms: _747  and  _748
REMARK  287  A    between atoms: _747  and  _750
REMARK  288  A    between atoms: _750  and  _751
REMARK  289  A    between atoms: _751  and  _752
REMARK  290  A    between atoms: _758  and  _759
REMARK  291  A    between atoms: _764  and  _766
REMARK  292  A    between atoms: _766  and  _767
REMARK  293  A    between atoms: _766  and  _769
REMARK  294  A    between atoms: _769  and  _770
REMARK  295  A    between atoms: _773  and  _775
REMARK  296  A    between atoms: _775  and  _776
REMARK  297  A    between atoms: _775  and  _778
REMARK  298  A    between atoms: _778  and  _779
REMARK  299  A    between atoms: _782  and  _784
REMARK  300  A    between atoms: _784  and  _785
REMARK  301  A    between atoms: _784  and  _787
REMARK  302  A    between atoms: _787  and  _788
REMARK  303  A    between atoms: _790  and  _792
REMARK  304  A    between atoms: _792  and  _793
REMARK  305  A    between atoms: _792  and  _795
REMARK  306  A    between atoms: _795  and  _796
REMARK  307  A    between atoms: _796  and  _797
REMARK  308  A    between atoms: _797  and  _798
REMARK  309  A    between atoms: _807  and  _809
REMARK  310  A    between atoms: _809  and  _810
REMARK                            x       y       z     vdW  Elec       q    Type
REMARK                         _______ _______ _______ _____ _____    ______ ____
ROOT
ATOM      1  CA  TYR A   2     -30.374 -13.158 -17.089  0.00  0.00    +0.141 C 
ENDROOT
BRANCH   1   3
ATOM      2  C   GLY A   1     -28.186 -14.125 -16.767  0.00  0.00    +0.240 C 
ATOM      3  N   TYR A   2     -29.215 -13.458 -16.280  0.00  0.00    -0.298 N 
ATOM      4  H   TYR A   2     -29.191 -13.141 -15.290  0.00  0.00    +0.150 HD
ATOM      5  O   GLY A   1     -28.112 -14.477 -17.943  0.00  0.00    -0.274 OA
BRANCH   2   6
ATOM      6  CA  GLY A   1     -27.063 -14.406 -15.806  0.00  0.00    +0.169 C 
BRANCH   6   7
ATOM      7  N   GLY A   1     -26.847 -13.574 -14.636  0.00  0.00    -0.236 NA
ATOM      8  H   GLY A   1     -27.089 -13.929 -13.689  0.00  0.00    +0.142 HD
ENDBRANCH   6   7
ENDBRANCH   2   6
ENDBRANCH   1   3
BRANCH   1   9
ATOM      9  C   TYR A   2     -30.235 -11.935 -17.939  0.00  0.00    +0.227 C 
ATOM     10  O   TYR A   2     -29.531 -11.001 -17.566  0.00  0.00    -0.286 OA
ENDBRANCH   1   9
BRANCH   1  11
ATOM     11  CB  TYR A   2     -31.599 -12.964 -16.191  0.00  0.00    +0.054 C 
BRANCH  11  12
ATOM     12  CG  TYR A   2     -31.747 -14.024 -15.126  0.00  0.00    -0.020 A 
ATOM     13  CD2 TYR A   2     -31.582 -13.715 -13.782  0.00  0.00    -0.001 A 
ATOM     14  CE2 TYR A   2     -31.712 -14.695 -12.788  0.00  0.00    +0.036 A 
ATOM     15  CZ  TYR A   2     -32.013 -16.010 -13.138  0.00  0.00    +0.134 A 
ATOM     16  CE1 TYR A   2     -32.186 -16.339 -14.482  0.00  0.00    +0.036 A 
ATOM     17  CD1 TYR A   2     -32.050 -15.342 -15.466  0.00  0.00    -0.001 A 
BRANCH  15  18
ATOM     18  OH  TYR A   2     -32.114 -16.966 -12.158  0.00  0.00    -0.506 OA
ATOM     19  HH  TYR A   2     -31.962 -16.548 -11.274  0.00  0.00    +0.292 HD
ENDBRANCH  15  18
ENDBRANCH  11  12
ENDBRANCH   1  11
TORSDOF 7
REMARK  Name = ../refined-set-2016/3rt4/3rt4_pocket.pdb
REMARK  310 active torsions:
REMARK  status: ('A' for Active; 'I' for Inactive)
REMARK    1  A    between atoms: _1  and  _3
REMARK    2  A    between atoms: _3  and  _4
REMARK    3  A    between atoms: _3  and  _6
REMARK    4  A    between atoms: _6  and  _7
REMARK    5  A    between atoms: _7  and  _8
REMARK    6  A    between atoms: _8  and  _9
REMARK    7  A    between atoms: _18  and  _20
REMARK    8  A    between atoms: _20  and  _21
REMARK    9  A    between atoms: _20  and  _23
REMARK   10  A    between atoms: _26  and  _28
REMARK   11  A    between atoms: _28  and  _29
REMARK   12  A    between atoms: _28  and  _31
REMARK   13  A    between atoms: _31  and  _32
REMARK   14  A    between atoms: _32  and  _33
REMARK   15  A    between atoms: _33  and  _34
REMARK   16  A    between atoms: _43  and  _45
REMARK   17  A    between atoms: _45  and  _46
REMARK   18  A    between atoms: _45  and  _48
REMARK   19  A    between atoms: _48  and  _49
REMARK   20  A    between atoms: _51  and  _53
REMARK   21  A    between atoms: _53  and  _54
REMARK   22  A    between atoms: _53  and  _56
REMARK   23  A    between atoms: _56  and  _57
REMARK   24  A    between atoms: _62  and  _64
REMARK   25  A    between atoms: _64  and  _65
REMARK   26  A    between atoms: _64  and  _67
REMARK   27  A    between atoms: _67  and  _68
REMARK   28  A    between atoms: _73  and  _74
REMARK   29  A    between atoms: _76  and  _78
REMARK   30  A    between atoms: _78  and  _79
REMARK   31  A    between atoms: _78  and  _81
REMARK   32  A    between atoms: _81  and  _82
REMARK   33  A    between atoms: _82  and  _83
REMARK   34  A    between atoms: _86  and  _88
REMARK   35  A    between atoms: _88  and  _89
REMARK   36  A    between atoms: _88  and  _91
REMARK   37  A    between atoms: _91  and  _92
REMARK   38  A    between atoms: _92  and  _93
REMARK   39  A    between atoms: _93  and  _94
REMARK   40  A    between atoms: _94  and  _95
REMARK   41  A    between atoms: _99  and  _101
REMARK   42  A    between atoms: _101  and  _102
REMARK   43  A    between atoms: _101  and  _104
REMARK   44  A    between atoms: _104  and  _105
REMARK   45  A    between atoms: _110  and  _111
REMARK   46  A    between atoms: _113  and  _115
REMARK   47  A    between atoms: _115  and  _116
REMARK   48  A    between atoms: _115  and  _118
REMARK   49  A    between atoms: _118  and  _119
REMARK   50  A    between atoms: _119  and  _120
REMARK   51  A    between atoms: _120  and  _121
REMARK   52  A    between atoms: _130  and  _132
REMARK   53  A    between atoms: _132  and  _133
REMARK   54  A    between atoms: _136  and  _138
REMARK   55  A    between atoms: _138  and  _139
REMARK   56  A    between atoms: _138  and  _141
REMARK   57  A    between atoms: _141  and  _142
REMARK   58  A    between atoms: _142  and  _258
REMARK   59  A    between atoms: _143  and  _145
REMARK   60  A    between atoms: _145  and  _146
REMARK   61  A    between atoms: _145  and  _148
REMARK   62  A    between atoms: _148  and  _149
REMARK   63  A    between atoms: _149  and  _150
REMARK   64  A    between atoms: _153  and  _155
REMARK   65  A    between atoms: _155  and  _156
REMARK   66  A    between atoms: _155  and  _158
REMARK   67  A    between atoms: _158  and  _159
REMARK   68  A    between atoms: _161  and  _163
REMARK   69  A    between atoms: _163  and  _164
REMARK   70  A    between atoms: _163  and  _166
REMARK   71  A    between atoms: _166  and  _167
REMARK   72  A    between atoms: _172  and  _173
REMARK   73  A    between atoms: _175  and  _177
REMARK   74  A    between atoms: _177  and  _178
REMARK   75  A    between atoms: _177  and  _180
REMARK   76  A    between atoms: _180  and  _181
REMARK   77  A    between atoms: _186  and  _188
REMARK   78  A    between atoms: _188  and  _189
REMARK   79  A    between atoms: _188  and  _191
REMARK   80  A    between atoms: _194  and  _196
REMARK   81  A    between atoms: _196  and  _197
REMARK   82  A    between atoms: _196  and  _199
REMARK   83  A    between atoms: _199  and  _200
REMARK   84  A    between atoms: _200  and  _201
REMARK   85  A    between atoms: _201  and  _202
REMARK   86  A    between atoms: _211  and  _213
REMARK   87  A    between atoms: _213  and  _214
REMARK   88  A    between atoms: _213  and  _216
REMARK   89  A    between atoms: _216  and  _217
REMARK   90  A    between atoms: _222  and  _224
REMARK   91  A    between atoms: _224  and  _225
REMARK   92  A    between atoms: _224  and  _227
REMARK   93  A    between atoms: _227  and  _228
REMARK   94  A    between atoms: _231  and  _233
REMARK   95  A    between atoms: _233  and  _234
REMARK   96  A    between atoms: _236  and  _238
REMARK   97  A    between atoms: _238  and  _239
REMARK   98  A    between atoms: _238  and  _241
REMARK   99  A    between atoms: _241  and  _242
REMARK  100  A    between atoms: _252  and  _254
REMARK  101  A    between atoms: _254  and  _255
REMARK  102  A    between atoms: _254  and  _257
REMARK  103  A    between atoms: _257  and  _258
REMARK  104  A    between atoms: _259  and  _261
REMARK  105  A    between atoms: _261  and  _262
REMARK  106  A    between atoms: _261  and  _264
REMARK  107  A    between atoms: _264  and  _265
REMARK  108  A    between atoms: _268  and  _270
REMARK  109  A    between atoms: _270  and  _271
REMARK  110  A    between atoms: _273  and  _275
REMARK  111  A    between atoms: _275  and  _276
REMARK  112  A    between atoms: _275  and  _278
REMARK  113  A    between atoms: _278  and  _279
REMARK  114  A    between atoms: _284  and  _285
REMARK  115  A    between atoms: _287  and  _289
REMARK  116  A    between atoms: _289  and  _290
REMARK  117  A    between atoms: _289  and  _292
REMARK  118  A    between atoms: _292  and  _293
REMARK  119  A    between atoms: _293  and  _294
REMARK  120  A    between atoms: _294  and  _295
REMARK  121  A    between atoms: _304  and  _306
REMARK  122  A    between atoms: _306  and  _307
REMARK  123  A    between atoms: _306  and  _309
REMARK  124  A    between atoms: _309  and  _310
REMARK  125  A    between atoms: _310  and  _311
REMARK  126  A    between atoms: _311  and  _312
REMARK  127  A    between atoms: _312  and  _313
REMARK  128  A    between atoms: _317  and  _319
REMARK  129  A    between atoms: _319  and  _320
REMARK  130  A    between atoms: _322  and  _324
REMARK  131  A    between atoms: _324  and  _325
REMARK  132  A    between atoms: _328  and  _330
REMARK  133  A    between atoms: _330  and  _331
REMARK  134  A    between atoms: _330  and  _333
REMARK  135  A    between atoms: _333  and  _334
REMARK  136  A    between atoms: _339  and  _341
REMARK  137  A    between atoms: _341  and  _342
REMARK  138  A    between atoms: _345  and  _347
REMARK  139  A    between atoms: _347  and  _348
REMARK  140  A    between atoms: _351  and  _352
REMARK  141  A    between atoms: _357  and  _359
REMARK  142  A    between atoms: _359  and  _360
REMARK  143  A    between atoms: _359  and  _362
REMARK  144  A    between atoms: _362  and  _363
REMARK  145  A    between atoms: _366  and  _368
REMARK  146  A    between atoms: _368  and  _369
REMARK  147  A    between atoms: _368  and  _371
REMARK  148  A    between atoms: _371  and  _372
REMARK  149  A    between atoms: _382  and  _384
REMARK  150  A    between atoms: _384  and  _385
REMARK  151  A    between atoms: _384  and  _387
REMARK  152  A    between atoms: _387  and  _388
REMARK  153  A    between atoms: _394  and  _395
REMARK  154  A    between atoms: _400  and  _402
REMARK  155  A    between atoms: _402  and  _403
REMARK  156  A    between atoms: _402  and  _405
REMARK  157  A    between atoms: _405  and  _406
REMARK  158  A    between atoms: _409  and  _411
REMARK  159  A    between atoms: _411  and  _412
REMARK  160  A    between atoms: _411  and  _414
REMARK  161  A    between atoms: _414  and  _415
REMARK  162  A    between atoms: _417  and  _419
REMARK  163  A    between atoms: _419  and  _420
REMARK  164  A    between atoms: _419  and  _422
REMARK  165  A    between atoms: _422  and  _423
REMARK  166  A    between atoms: _428  and  _430
REMARK  167  A    between atoms: _430  and  _431
REMARK  168  A    between atoms: _430  and  _433
REMARK  169  A    between atoms: _436  and  _438
REMARK  170  A    between atoms: _438  and  _439
REMARK  171  A    between atoms: _438  and  _441
REMARK  172  A    between atoms: _441  and  _442
REMARK  173  A    between atoms: _442  and  _443
REMARK  174  A    between atoms: _449  and  _450
REMARK  175  A    between atoms: _455  and  _457
REMARK  176  A    between atoms: _457  and  _458
REMARK  177  A    between atoms: _457  and  _460
REMARK  178  A    between atoms: _460  and  _461
REMARK  179  A    between atoms: _464  and  _466
REMARK  180  A    between atoms: _466  and  _467
REMARK  181  A    between atoms: _466  and  _469
REMARK  182  A    between atoms: _469  and  _470
REMARK  183  A    between atoms: _473  and  _475
REMARK  184  A    between atoms: _475  and  _476
REMARK  185  A    between atoms: _475  and  _478
REMARK  186  A    between atoms: _478  and  _479
REMARK  187  A    between atoms: _481  and  _483
REMARK  188  A    between atoms: _483  and  _484
REMARK  189  A    between atoms: _483  and  _486
REMARK  190  A    between atoms: _486  and  _487
REMARK  191  A    between atoms: _492  and  _493
REMARK  192  A    between atoms: _495  and  _497
REMARK  193  A    between atoms: _497  and  _498
REMARK  194  A    between atoms: _497  and  _500
REMARK  195  A    between atoms: _500  and  _501
REMARK  196  A    between atoms: _506  and  _508
REMARK  197  A    between atoms: _508  and  _509
REMARK  198  A    between atoms: _508  and  _511
REMARK  199  A    between atoms: _511  and  _512
REMARK  200  A    between atoms: _515  and  _517
REMARK  201  A    between atoms: _517  and  _518
REMARK  202  A    between atoms: _517  and  _520
REMARK  203  A    between atoms: _520  and  _521
REMARK  204  A    between atoms: _531  and  _533
REMARK  205  A    between atoms: _533  and  _534
REMARK  206  A    between atoms: _536  and  _538
REMARK  207  A    between atoms: _538  and  _539
REMARK  208  A    between atoms: _538  and  _541
REMARK  209  A    between atoms: _541  and  _542
REMARK  210  A    between atoms: _547  and  _548
REMARK  211  A    between atoms: _550  and  _552
REMARK  212  A    between atoms: _552  and  _553
REMARK  213  A    between atoms: _552  and  _555
REMARK  214  A    between atoms: _555  and  _556
REMARK  215  A    between atoms: _556  and  _557
REMARK  216  A    between atoms: _557  and  _558
REMARK  217  A    between atoms: _567  and  _569
REMARK  218  A    between atoms: _569  and  _570
REMARK  219  A    between atoms: _569  and  _572
REMARK  220  A    between atoms: _572  and  _573
REMARK  221  A    between atoms: _573  and  _574
REMARK  222  A    between atoms: _574  and  _575
REMARK  223  A    between atoms: _575  and  _576
REMARK  224  A    between atoms: _580  and  _582
REMARK  225  A    between atoms: _582  and  _583
REMARK  226  A    between atoms: _585  and  _587
REMARK  227  A    between atoms: _587  and  _588
REMARK  228  A    between atoms: _591  and  _593
REMARK  229  A    between atoms: _593  and  _594
REMARK  230  A    between atoms: _593  and  _596
REMARK  231  A    between atoms: _596  and  _597
REMARK  232  A    between atoms: _602  and  _604
REMARK  233  A    between atoms: _604  and  _605
REMARK  234  A    between atoms: _608  and  _610
REMARK  235  A    between atoms: _610  and  _611
REMARK  236  A    between atoms: _614  and  _615
REMARK  237  A    between atoms: _620  and  _622
REMARK  238  A    between atoms: _622  and  _623
REMARK  239  A    between atoms: _622  and  _625
REMARK  240  A    between atoms: _625  and  _626
REMARK  241  A    between atoms: _629  and  _631
REMARK  242  A    between atoms: _631  and  _632
REMARK  243  A    between atoms: _631  and  _634
REMARK  244  A    between atoms: _634  and  _635
REMARK  245  A    between atoms: _645  and  _647
REMARK  246  A    between atoms: _647  and  _648
REMARK  247  A    between atoms: _647  and  _650
REMARK  248  A    between atoms: _650  and  _651
REMARK  249  A    between atoms: _657  and  _658
REMARK  250  A    between atoms: _663  and  _665
REMARK  251  A    between atoms: _665  and  _666
REMARK  252  A    between atoms: _665  and  _668
REMARK  253  A    between atoms: _668  and  _669
REMARK  254  A    between atoms: _672  and  _674
REMARK  255  A    between atoms: _674  and  _675
REMARK  256  A    between atoms: _674  and  _677
REMARK  257  A    between atoms: _677  and  _678
REMARK  258  A    between atoms: _678  and  _679
REMARK  259  A    between atoms: _682  and  _684
REMARK  260  A    between atoms: _684  and  _685
REMARK  261  A    between atoms: _684  and  _687
REMARK  262  A    between atoms: _687  and  _688
REMARK  263  A    between atoms: _688  and  _689
REMARK  264  A    between atoms: _689  and  _690
REMARK  265  A    between atoms: _690  and  _691
REMARK  266  A    between atoms: _695  and  _697
REMARK  267  A    between atoms: _697  and  _698
REMARK  268  A    between atoms: _700  and  _702
REMARK  269  A    between atoms: _702  and  _703
REMARK  270  A    between atoms: _702  and  _705
REMARK  271  A    between atoms: _705  and  _706
REMARK  272  A    between atoms: _711  and  _713
REMARK  273  A    between atoms: _713  and  _714
REMARK  274  A    between atoms: _713  and  _716
REMARK  275  A    between atoms: _716  and  _717
REMARK  276  A    between atoms: _717  and  _718
REMARK  277  A    between atoms: _718  and  _719
REMARK  278  A    between atoms: _728  and  _730
REMARK  279  A    between atoms: _730  and  _731
REMARK  280  A    between atoms: _730  and  _733
REMARK  281  A    between atoms: _733  and  _734
REMARK  282  A    between atoms: _737  and  _739
REMARK  283  A    between atoms: _739  and  _740
REMARK  284  A    between atoms: _739  and  _742
REMARK  285  A    between atoms: _745  and  _747
REMARK  286  A    between atoms: _747  and  _748
REMARK  287  A    between atoms: _747  and  _750
REMARK  288  A    between atoms: _750  and  _751
REMARK  289  A    between atoms: _751  and  _752
REMARK  290  A    between atoms: _758  and  _759
REMARK  291  A    between atoms: _764  and  _766
REMARK  292  A    between atoms: _766  and  _767
REMARK  293  A    between atoms: _766  and  _769
REMARK  294  A    between atoms: _769  and  _770
REMARK  295  A    between atoms: _773  and  _775
REMARK  296  A    between atoms: _775  and  _776
REMARK  297  A    between atoms: _775  and  _778
REMARK  298  A    between atoms: _778  and  _779
REMARK  299  A    between atoms: _782  and  _784
REMARK  300  A    between atoms: _784  and  _785
REMARK  301  A    between atoms: _784  and  _787
REMARK  302  A    between atoms: _787  and  _788
REMARK  303  A    between atoms: _790  and  _792
REMARK  304  A    between atoms: _792  and  _793
REMARK  305  A    between atoms: _792  and  _795
REMARK  306  A    between atoms: _795  and  _796
REMARK  307  A    between atoms: _796  and  _797
REMARK  308  A    between atoms: _797  and  _798
REMARK  309  A    between atoms: _807  and  _809
REMARK  310  A    between atoms: _809  and  _810
REMARK                            x       y       z     vdW  Elec       q    Type
REMARK                         _______ _______ _______ _____ _____    ______ ____
ROOT
ATOM      1  NE  ARG A   1     -24.794 -12.548 -18.177  0.00  0.00    -0.265 N 
ATOM      2  HE  ARG A   1     -25.245 -12.285 -17.278  0.00  0.00    +0.259 HD
ATOM      3  CZ  ARG A   1     -23.882 -13.509 -18.144  0.00  0.00    +0.342 C 
ATOM      4  NH2 ARG A   1     -23.557 -14.065 -16.984  0.00  0.00    -0.292 N 
ATOM      5 HH21 ARG A   1     -24.017 -13.746 -16.108  0.00  0.00    +0.255 HD
ATOM      6 HH22 ARG A   1     -22.842 -14.820 -16.951  0.00  0.00    +0.255 HD
ATOM      7  NH1 ARG A   1     -23.289 -13.900 -19.257  0.00  0.00    -0.292 N 
ATOM      8 HH11 ARG A   1     -22.574 -14.654 -19.228  0.00  0.00    +0.255 HD
ATOM      9 HH12 ARG A   1     -23.537 -13.454 -20.163  0.00  0.00    +0.255 HD
ENDROOT
BRANCH   1  10
ATOM     10  CD  ARG A   1     -25.214 -11.831 -19.373  0.00  0.00    +0.174 C 
BRANCH  10  11
ATOM     11  CG  ARG A   1     -26.041 -10.628 -18.969  0.00  0.00    +0.045 C 
BRANCH  11  12
ATOM     12  CB  ARG A   1     -26.785  -9.987 -20.104  0.00  0.00    +0.029 C 
BRANCH  12  13
ATOM     13  CA  ARG A   1     -27.262  -8.576 -19.750  0.00  0.00    +0.133 C 
BRANCH  13  14
ATOM     14  N   ARG A   1     -28.266  -8.593 -18.684  0.00  0.00    -0.239 NA
ATOM     15  H   ARG A   1     -28.713  -9.489 -18.405  0.00  0.00    +0.142 HD
ENDBRANCH  13  14
BRANCH  13  16
ATOM     16  C   ARG A   1     -27.853  -7.887 -20.980  0.00  0.00    +0.224 C 
ATOM     17  O   ARG A   1     -27.113  -7.509 -21.889  0.00  0.00    -0.287 OA
ENDBRANCH  13  16
ENDBRANCH  12  13
ENDBRANCH  11  12
ENDBRANCH  10  11
ENDBRANCH   1  10
TORSDOF 6
REMARK  Name = ../refined-set-2016/3rt4/3rt4_pocket.pdb
REMARK  310 active torsions:
REMARK  status: ('A' for Active; 'I' for Inactive)
REMARK    1  A    between atoms: _1  and  _3
REMARK    2  A    between atoms: _3  and  _4
REMARK    3  A    between atoms: _3  and  _6
REMARK    4  A    between atoms: _6  and  _7
REMARK    5  A    between atoms: _7  and  _8
REMARK    6  A    between atoms: _8  and  _9
REMARK    7  A    between atoms: _18  and  _20
REMARK    8  A    between atoms: _20  and  _21
REMARK    9  A    between atoms: _20  and  _23
REMARK   10  A    between atoms: _26  and  _28
REMARK   11  A    between atoms: _28  and  _29
REMARK   12  A    between atoms: _28  and  _31
REMARK   13  A    between atoms: _31  and  _32
REMARK   14  A    between atoms: _32  and  _33
REMARK   15  A    between atoms: _33  and  _34
REMARK   16  A    between atoms: _43  and  _45
REMARK   17  A    between atoms: _45  and  _46
REMARK   18  A    between atoms: _45  and  _48
REMARK   19  A    between atoms: _48  and  _49
REMARK   20  A    between atoms: _51  and  _53
REMARK   21  A    between atoms: _53  and  _54
REMARK   22  A    between atoms: _53  and  _56
REMARK   23  A    between atoms: _56  and  _57
REMARK   24  A    between atoms: _62  and  _64
REMARK   25  A    between atoms: _64  and  _65
REMARK   26  A    between atoms: _64  and  _67
REMARK   27  A    between atoms: _67  and  _68
REMARK   28  A    between atoms: _73  and  _74
REMARK   29  A    between atoms: _76  and  _78
REMARK   30  A    between atoms: _78  and  _79
REMARK   31  A    between atoms: _78  and  _81
REMARK   32  A    between atoms: _81  and  _82
REMARK   33  A    between atoms: _82  and  _83
REMARK   34  A    between atoms: _86  and  _88
REMARK   35  A    between atoms: _88  and  _89
REMARK   36  A    between atoms: _88  and  _91
REMARK   37  A    between atoms: _91  and  _92
REMARK   38  A    between atoms: _92  and  _93
REMARK   39  A    between atoms: _93  and  _94
REMARK   40  A    between atoms: _94  and  _95
REMARK   41  A    between atoms: _99  and  _101
REMARK   42  A    between atoms: _101  and  _102
REMARK   43  A    between atoms: _101  and  _104
REMARK   44  A    between atoms: _104  and  _105
REMARK   45  A    between atoms: _110  and  _111
REMARK   46  A    between atoms: _113  and  _115
REMARK   47  A    between atoms: _115  and  _116
REMARK   48  A    between atoms: _115  and  _118
REMARK   49  A    between atoms: _118  and  _119
REMARK   50  A    between atoms: _119  and  _120
REMARK   51  A    between atoms: _120  and  _121
REMARK   52  A    between atoms: _130  and  _132
REMARK   53  A    between atoms: _132  and  _133
REMARK   54  A    between atoms: _136  and  _138
REMARK   55  A    between atoms: _138  and  _139
REMARK   56  A    between atoms: _138  and  _141
REMARK   57  A    between atoms: _141  and  _142
REMARK   58  A    between atoms: _142  and  _258
REMARK   59  A    between atoms: _143  and  _145
REMARK   60  A    between atoms: _145  and  _146
REMARK   61  A    between atoms: _145  and  _148
REMARK   62  A    between atoms: _148  and  _149
REMARK   63  A    between atoms: _149  and  _150
REMARK   64  A    between atoms: _153  and  _155
REMARK   65  A    between atoms: _155  and  _156
REMARK   66  A    between atoms: _155  and  _158
REMARK   67  A    between atoms: _158  and  _159
REMARK   68  A    between atoms: _161  and  _163
REMARK   69  A    between atoms: _163  and  _164
REMARK   70  A    between atoms: _163  and  _166
REMARK   71  A    between atoms: _166  and  _167
REMARK   72  A    between atoms: _172  and  _173
REMARK   73  A    between atoms: _175  and  _177
REMARK   74  A    between atoms: _177  and  _178
REMARK   75  A    between atoms: _177  and  _180
REMARK   76  A    between atoms: _180  and  _181
REMARK   77  A    between atoms: _186  and  _188
REMARK   78  A    between atoms: _188  and  _189
REMARK   79  A    between atoms: _188  and  _191
REMARK   80  A    between atoms: _194  and  _196
REMARK   81  A    between atoms: _196  and  _197
REMARK   82  A    between atoms: _196  and  _199
REMARK   83  A    between atoms: _199  and  _200
REMARK   84  A    between atoms: _200  and  _201
REMARK   85  A    between atoms: _201  and  _202
REMARK   86  A    between atoms: _211  and  _213
REMARK   87  A    between atoms: _213  and  _214
REMARK   88  A    between atoms: _213  and  _216
REMARK   89  A    between atoms: _216  and  _217
REMARK   90  A    between atoms: _222  and  _224
REMARK   91  A    between atoms: _224  and  _225
REMARK   92  A    between atoms: _224  and  _227
REMARK   93  A    between atoms: _227  and  _228
REMARK   94  A    between atoms: _231  and  _233
REMARK   95  A    between atoms: _233  and  _234
REMARK   96  A    between atoms: _236  and  _238
REMARK   97  A    between atoms: _238  and  _239
REMARK   98  A    between atoms: _238  and  _241
REMARK   99  A    between atoms: _241  and  _242
REMARK  100  A    between atoms: _252  and  _254
REMARK  101  A    between atoms: _254  and  _255
REMARK  102  A    between atoms: _254  and  _257
REMARK  103  A    between atoms: _257  and  _258
REMARK  104  A    between atoms: _259  and  _261
REMARK  105  A    between atoms: _261  and  _262
REMARK  106  A    between atoms: _261  and  _264
REMARK  107  A    between atoms: _264  and  _265
REMARK  108  A    between atoms: _268  and  _270
REMARK  109  A    between atoms: _270  and  _271
REMARK  110  A    between atoms: _273  and  _275
REMARK  111  A    between atoms: _275  and  _276
REMARK  112  A    between atoms: _275  and  _278
REMARK  113  A    between atoms: _278  and  _279
REMARK  114  A    between atoms: _284  and  _285
REMARK  115  A    between atoms: _287  and  _289
REMARK  116  A    between atoms: _289  and  _290
REMARK  117  A    between atoms: _289  and  _292
REMARK  118  A    between atoms: _292  and  _293
REMARK  119  A    between atoms: _293  and  _294
REMARK  120  A    between atoms: _294  and  _295
REMARK  121  A    between atoms: _304  and  _306
REMARK  122  A    between atoms: _306  and  _307
REMARK  123  A    between atoms: _306  and  _309
REMARK  124  A    between atoms: _309  and  _310
REMARK  125  A    between atoms: _310  and  _311
REMARK  126  A    between atoms: _311  and  _312
REMARK  127  A    between atoms: _312  and  _313
REMARK  128  A    between atoms: _317  and  _319
REMARK  129  A    between atoms: _319  and  _320
REMARK  130  A    between atoms: _322  and  _324
REMARK  131  A    between atoms: _324  and  _325
REMARK  132  A    between atoms: _328  and  _330
REMARK  133  A    between atoms: _330  and  _331
REMARK  134  A    between atoms: _330  and  _333
REMARK  135  A    between atoms: _333  and  _334
REMARK  136  A    between atoms: _339  and  _341
REMARK  137  A    between atoms: _341  and  _342
REMARK  138  A    between atoms: _345  and  _347
REMARK  139  A    between atoms: _347  and  _348
REMARK  140  A    between atoms: _351  and  _352
REMARK  141  A    between atoms: _357  and  _359
REMARK  142  A    between atoms: _359  and  _360
REMARK  143  A    between atoms: _359  and  _362
REMARK  144  A    between atoms: _362  and  _363
REMARK  145  A    between atoms: _366  and  _368
REMARK  146  A    between atoms: _368  and  _369
REMARK  147  A    between atoms: _368  and  _371
REMARK  148  A    between atoms: _371  and  _372
REMARK  149  A    between atoms: _382  and  _384
REMARK  150  A    between atoms: _384  and  _385
REMARK  151  A    between atoms: _384  and  _387
REMARK  152  A    between atoms: _387  and  _388
REMARK  153  A    between atoms: _394  and  _395
REMARK  154  A    between atoms: _400  and  _402
REMARK  155  A    between atoms: _402  and  _403
REMARK  156  A    between atoms: _402  and  _405
REMARK  157  A    between atoms: _405  and  _406
REMARK  158  A    between atoms: _409  and  _411
REMARK  159  A    between atoms: _411  and  _412
REMARK  160  A    between atoms: _411  and  _414
REMARK  161  A    between atoms: _414  and  _415
REMARK  162  A    between atoms: _417  and  _419
REMARK  163  A    between atoms: _419  and  _420
REMARK  164  A    between atoms: _419  and  _422
REMARK  165  A    between atoms: _422  and  _423
REMARK  166  A    between atoms: _428  and  _430
REMARK  167  A    between atoms: _430  and  _431
REMARK  168  A    between atoms: _430  and  _433
REMARK  169  A    between atoms: _436  and  _438
REMARK  170  A    between atoms: _438  and  _439
REMARK  171  A    between atoms: _438  and  _441
REMARK  172  A    between atoms: _441  and  _442
REMARK  173  A    between atoms: _442  and  _443
REMARK  174  A    between atoms: _449  and  _450
REMARK  175  A    between atoms: _455  and  _457
REMARK  176  A    between atoms: _457  and  _458
REMARK  177  A    between atoms: _457  and  _460
REMARK  178  A    between atoms: _460  and  _461
REMARK  179  A    between atoms: _464  and  _466
REMARK  180  A    between atoms: _466  and  _467
REMARK  181  A    between atoms: _466  and  _469
REMARK  182  A    between atoms: _469  and  _470
REMARK  183  A    between atoms: _473  and  _475
REMARK  184  A    between atoms: _475  and  _476
REMARK  185  A    between atoms: _475  and  _478
REMARK  186  A    between atoms: _478  and  _479
REMARK  187  A    between atoms: _481  and  _483
REMARK  188  A    between atoms: _483  and  _484
REMARK  189  A    between atoms: _483  and  _486
REMARK  190  A    between atoms: _486  and  _487
REMARK  191  A    between atoms: _492  and  _493
REMARK  192  A    between atoms: _495  and  _497
REMARK  193  A    between atoms: _497  and  _498
REMARK  194  A    between atoms: _497  and  _500
REMARK  195  A    between atoms: _500  and  _501
REMARK  196  A    between atoms: _506  and  _508
REMARK  197  A    between atoms: _508  and  _509
REMARK  198  A    between atoms: _508  and  _511
REMARK  199  A    between atoms: _511  and  _512
REMARK  200  A    between atoms: _515  and  _517
REMARK  201  A    between atoms: _517  and  _518
REMARK  202  A    between atoms: _517  and  _520
REMARK  203  A    between atoms: _520  and  _521
REMARK  204  A    between atoms: _531  and  _533
REMARK  205  A    between atoms: _533  and  _534
REMARK  206  A    between atoms: _536  and  _538
REMARK  207  A    between atoms: _538  and  _539
REMARK  208  A    between atoms: _538  and  _541
REMARK  209  A    between atoms: _541  and  _542
REMARK  210  A    between atoms: _547  and  _548
REMARK  211  A    between atoms: _550  and  _552
REMARK  212  A    between atoms: _552  and  _553
REMARK  213  A    between atoms: _552  and  _555
REMARK  214  A    between atoms: _555  and  _556
REMARK  215  A    between atoms: _556  and  _557
REMARK  216  A    between atoms: _557  and  _558
REMARK  217  A    between atoms: _567  and  _569
REMARK  218  A    between atoms: _569  and  _570
REMARK  219  A    between atoms: _569  and  _572
REMARK  220  A    between atoms: _572  and  _573
REMARK  221  A    between atoms: _573  and  _574
REMARK  222  A    between atoms: _574  and  _575
REMARK  223  A    between atoms: _575  and  _576
REMARK  224  A    between atoms: _580  and  _582
REMARK  225  A    between atoms: _582  and  _583
REMARK  226  A    between atoms: _585  and  _587
REMARK  227  A    between atoms: _587  and  _588
REMARK  228  A    between atoms: _591  and  _593
REMARK  229  A    between atoms: _593  and  _594
REMARK  230  A    between atoms: _593  and  _596
REMARK  231  A    between atoms: _596  and  _597
REMARK  232  A    between atoms: _602  and  _604
REMARK  233  A    between atoms: _604  and  _605
REMARK  234  A    between atoms: _608  and  _610
REMARK  235  A    between atoms: _610  and  _611
REMARK  236  A    between atoms: _614  and  _615
REMARK  237  A    between atoms: _620  and  _622
REMARK  238  A    between atoms: _622  and  _623
REMARK  239  A    between atoms: _622  and  _625
REMARK  240  A    between atoms: _625  and  _626
REMARK  241  A    between atoms: _629  and  _631
REMARK  242  A    between atoms: _631  and  _632
REMARK  243  A    between atoms: _631  and  _634
REMARK  244  A    between atoms: _634  and  _635
REMARK  245  A    between atoms: _645  and  _647
REMARK  246  A    between atoms: _647  and  _648
REMARK  247  A    between atoms: _647  and  _650
REMARK  248  A    between atoms: _650  and  _651
REMARK  249  A    between atoms: _657  and  _658
REMARK  250  A    between atoms: _663  and  _665
REMARK  251  A    between atoms: _665  and  _666
REMARK  252  A    between atoms: _665  and  _668
REMARK  253  A    between atoms: _668  and  _669
REMARK  254  A    between atoms: _672  and  _674
REMARK  255  A    between atoms: _674  and  _675
REMARK  256  A    between atoms: _674  and  _677
REMARK  257  A    between atoms: _677  and  _678
REMARK  258  A    between atoms: _678  and  _679
REMARK  259  A    between atoms: _682  and  _684
REMARK  260  A    between atoms: _684  and  _685
REMARK  261  A    between atoms: _684  and  _687
REMARK  262  A    between atoms: _687  and  _688
REMARK  263  A    between atoms: _688  and  _689
REMARK  264  A    between atoms: _689  and  _690
REMARK  265  A    between atoms: _690  and  _691
REMARK  266  A    between atoms: _695  and  _697
REMARK  267  A    between atoms: _697  and  _698
REMARK  268  A    between atoms: _700  and  _702
REMARK  269  A    between atoms: _702  and  _703
REMARK  270  A    between atoms: _702  and  _705
REMARK  271  A    between atoms: _705  and  _706
REMARK  272  A    between atoms: _711  and  _713
REMARK  273  A    between atoms: _713  and  _714
REMARK  274  A    between atoms: _713  and  _716
REMARK  275  A    between atoms: _716  and  _717
REMARK  276  A    between atoms: _717  and  _718
REMARK  277  A    between atoms: _718  and  _719
REMARK  278  A    between atoms: _728  and  _730
REMARK  279  A    between atoms: _730  and  _731
REMARK  280  A    between atoms: _730  and  _733
REMARK  281  A    between atoms: _733  and  _734
REMARK  282  A    between atoms: _737  and  _739
REMARK  283  A    between atoms: _739  and  _740
REMARK  284  A    between atoms: _739  and  _742
REMARK  285  A    between atoms: _745  and  _747
REMARK  286  A    between atoms: _747  and  _748
REMARK  287  A    between atoms: _747  and  _750
REMARK  288  A    between atoms: _750  and  _751
REMARK  289  A    between atoms: _751  and  _752
REMARK  290  A    between atoms: _758  and  _759
REMARK  291  A    between atoms: _764  and  _766
REMARK  292  A    between atoms: _766  and  _767
REMARK  293  A    between atoms: _766  and  _769
REMARK  294  A    between atoms: _769  and  _770
REMARK  295  A    between atoms: _773  and  _775
REMARK  296  A    between atoms: _775  and  _776
REMARK  297  A    between atoms: _775  and  _778
REMARK  298  A    between atoms: _778  and  _779
REMARK  299  A    between atoms: _782  and  _784
REMARK  300  A    between atoms: _784  and  _785
REMARK  301  A    between atoms: _784  and  _787
REMARK  302  A    between atoms: _787  and  _788
REMARK  303  A    between atoms: _790  and  _792
REMARK  304  A    between atoms: _792  and  _793
REMARK  305  A    between atoms: _792  and  _795
REMARK  306  A    between atoms: _795  and  _796
REMARK  307  A    between atoms: _796  and  _797
REMARK  308  A    between atoms: _797  and  _798
REMARK  309  A    between atoms: _807  and  _809
REMARK  310  A    between atoms: _809  and  _810
REMARK                            x       y       z     vdW  Elec       q    Type
REMARK                         _______ _______ _______ _____ _____    ______ ____
ROOT
ATOM      1  C   PRO A   7     -25.388 -24.154 -24.587  0.00  0.00    +0.241 C 
ATOM      2  N   THR A   8     -26.513 -24.852 -24.637  0.00  0.00    -0.295 N 
ATOM      3  H   THR A   8     -26.877 -25.328 -23.787  0.00  0.00    +0.150 HD
ATOM      4  O   PRO A   7     -24.923 -23.585 -25.564  0.00  0.00    -0.273 OA
ENDROOT
BRANCH   1  10
ATOM      5  C   GLY A   6     -26.556 -23.460 -21.685  0.00  0.00    +0.246 C 
ATOM      6  N   PRO A   7     -25.468 -24.184 -22.030  0.00  0.00    -0.272 N 
ATOM      7  CD  PRO A   7     -25.106 -25.421 -21.317  0.00  0.00    +0.094 C 
ATOM      8  CG  PRO A   7     -24.140 -26.122 -22.284  0.00  0.00    +0.024 C 
ATOM      9  CB  PRO A   7     -23.531 -25.023 -23.067  0.00  0.00    +0.031 C 
ATOM     10  CA  PRO A   7     -24.674 -24.021 -23.251  0.00  0.00    +0.152 C 
ATOM     11  O   GLY A   6     -27.070 -22.617 -22.447  0.00  0.00    -0.273 OA
BRANCH   5  12
ATOM     12  CA  GLY A   6     -27.187 -23.803 -20.342  0.00  0.00    +0.176 C 
BRANCH  12  14
ATOM     13  C   ALA A   5     -29.411 -22.905 -20.289  0.00  0.00    +0.241 C 
ATOM     14  N   GLY A   6     -28.163 -22.854 -19.852  0.00  0.00    -0.295 N 
ATOM     15  H   GLY A   6     -27.884 -22.132 -19.157  0.00  0.00    +0.150 HD
ATOM     16  O   ALA A   5     -29.796 -23.753 -21.104  0.00  0.00    -0.273 OA
BRANCH  13  17
ATOM     17  CA  ALA A   5     -30.399 -21.876 -19.736  0.00  0.00    +0.149 C 
ATOM     18  CB  ALA A   5     -31.414 -21.471 -20.851  0.00  0.00    +0.031 C 
BRANCH  17  21
ATOM     19  C   HIS A   4     -30.257 -20.082 -18.101  0.00  0.00    +0.241 C 
ATOM     20  O   HIS A   4     -31.207 -20.529 -17.470  0.00  0.00    -0.273 OA
ATOM     21  N   ALA A   5     -29.782 -20.669 -19.196  0.00  0.00    -0.297 N 
ATOM     22  H   ALA A   5     -28.955 -20.260 -19.676  0.00  0.00    +0.150 HD
BRANCH  19  23
ATOM     23  CA  HIS A   4     -29.579 -18.793 -17.652  0.00  0.00    +0.155 C 
BRANCH  23  26
ATOM     24  C   ALA A   3     -27.305 -17.943 -17.734  0.00  0.00    +0.241 C 
ATOM     25  O   ALA A   3     -27.326 -17.636 -16.554  0.00  0.00    -0.273 OA
ATOM     26  N   HIS A   4     -28.321 -18.538 -18.343  0.00  0.00    -0.297 N 
ATOM     27  H   HIS A   4     -28.218 -18.829 -19.336  0.00  0.00    +0.150 HD
BRANCH  24  28
ATOM     28  CA  ALA A   3     -26.081 -17.651 -18.562  0.00  0.00    +0.149 C 
ATOM     29  CB  ALA A   3     -24.885 -17.409 -17.653  0.00  0.00    +0.031 C 
BRANCH  28  31
ATOM     30  C   GLY A   2     -26.284 -16.110 -20.455  0.00  0.00    +0.243 C 
ATOM     31  N   ALA A   3     -26.495 -16.404 -19.183  0.00  0.00    -0.297 N 
ATOM     32  H   ALA A   3     -26.986 -15.702 -18.593  0.00  0.00    +0.150 HD
ATOM     33  O   GLY A   2     -25.698 -16.863 -21.231  0.00  0.00    -0.273 OA
BRANCH  30  34
ATOM     34  CA  GLY A   2     -26.793 -14.745 -20.891  0.00  0.00    +0.176 C 
BRANCH  34  37
ATOM     35  C   LYS A   1     -25.397 -14.013 -22.739  0.00  0.00    +0.238 C 
ATOM     36  O   LYS A   1     -24.474 -13.711 -21.978  0.00  0.00    -0.274 OA
ATOM     37  N   GLY A   2     -26.561 -14.502 -22.305  0.00  0.00    -0.296 N 
ATOM     38  H   GLY A   2     -27.314 -14.713 -22.990  0.00  0.00    +0.150 HD
BRANCH  35  39
ATOM     39  CA  LYS A   1     -25.265 -13.806 -24.249  0.00  0.00    +0.145 C 
BRANCH  39  40
ATOM     40  N   LYS A   1     -24.889 -12.444 -24.574  0.00  0.00    -0.238 NA
ATOM     41  H   LYS A   1     -23.985 -12.264 -25.056  0.00  0.00    +0.142 HD
ENDBRANCH  39  40
BRANCH  39  42
ATOM     42  CB  LYS A   1     -24.241 -14.788 -24.819  0.00  0.00    +0.026 C 
BRANCH  42  43
ATOM     43  CG  LYS A   1     -24.598 -16.231 -24.532  0.00  0.00    -0.000 C 
BRANCH  43  44
ATOM     44  CD  LYS A   1     -23.643 -17.247 -25.136  0.00  0.00    -0.024 C 
BRANCH  44  45
ATOM     45  CE  LYS A   1     -22.236 -17.076 -24.568  0.00  0.00    -0.086 C 
BRANCH  45  46
ATOM     46  NZ  LYS A   1     -21.402 -18.311 -24.565  0.00  0.00    +0.380 N 
ATOM     47  HZ1 LYS A   1     -21.869 -19.042 -23.990  0.00  0.00    -0.089 HD
ATOM     48  HZ2 LYS A   1     -20.468 -18.096 -24.162  0.00  0.00    -0.089 HD
ATOM     49  HZ3 LYS A   1     -21.290 -18.655 -25.540  0.00  0.00    -0.089 HD
ENDBRANCH  45  46
ENDBRANCH  44  45
ENDBRANCH  43  44
ENDBRANCH  42  43
ENDBRANCH  39  42
ENDBRANCH  35  39
ENDBRANCH  34  37
ENDBRANCH  30  34
ENDBRANCH  28  31
ENDBRANCH  24  28
ENDBRANCH  23  26
BRANCH  23  50
ATOM     50  CB  HIS A   4     -30.523 -17.652 -17.968  0.00  0.00    +0.076 C 
BRANCH  50  51
ATOM     51  CG  HIS A   4     -30.643 -17.397 -19.441  0.00  0.00    +0.082 A 
ATOM     52  ND1 HIS A   4     -31.523 -18.080 -20.256  0.00  0.00    -0.227 NA
ATOM     53  CE1 HIS A   4     -31.366 -17.685 -21.506  0.00  0.00    +0.199 A 
ATOM     54  NE2 HIS A   4     -30.410 -16.775 -21.536  0.00  0.00    -0.221 NA
ATOM     55  CD2 HIS A   4     -29.944 -16.574 -20.259  0.00  0.00    +0.115 A 
ENDBRANCH  50  51
ENDBRANCH  23  50
ENDBRANCH  19  23
ENDBRANCH  17  21
ENDBRANCH  13  17
ENDBRANCH  12  14
ENDBRANCH   5  12
ENDBRANCH   1  10
BRANCH   2  56
ATOM     56  CA  THR A   8     -27.233 -24.942 -25.903  0.00  0.00    +0.176 C 
BRANCH  56  57
ATOM     57  C   THR A   8     -28.110 -23.730 -26.154  0.00  0.00    +0.243 C 
ATOM     58  N   TRP A   9     -28.843 -23.337 -25.130  0.00  0.00    -0.297 N 
ATOM     59  H   TRP A   9     -28.739 -23.821 -24.215  0.00  0.00    +0.150 HD
ATOM     60  O   THR A   8     -28.101 -23.148 -27.232  0.00  0.00    -0.273 OA
BRANCH  58  61
ATOM     61  CA  TRP A   9     -29.789 -22.248 -25.249  0.00  0.00    +0.153 C 
BRANCH  61  62
ATOM     62  C   TRP A   9     -29.305 -20.837 -25.058  0.00  0.00    +0.241 C 
ATOM     63  N   ASN A  10     -28.338 -20.677 -24.181  0.00  0.00    -0.297 N 
ATOM     64  H   ASN A  10     -27.961 -21.507 -23.680  0.00  0.00    +0.150 HD
ATOM     65  O   TRP A   9     -29.788 -19.915 -25.706  0.00  0.00    -0.273 OA
BRANCH  63  66
ATOM     66  CA  ASN A  10     -27.790 -19.374 -23.900  0.00  0.00    +0.158 C 
BRANCH  66  67
ATOM     67  C   ASN A  10     -27.389 -18.595 -25.129  0.00  0.00    +0.244 C 
ATOM     68  O   ASN A  10     -27.759 -17.438 -25.285  0.00  0.00    -0.273 OA
ATOM     69  N   PRO A  11     -26.624 -19.222 -26.026  0.00  0.00    -0.272 N 
ATOM     70  CD  PRO A  11     -26.004 -20.559 -26.002  0.00  0.00    +0.094 C 
ATOM     71  CG  PRO A  11     -25.398 -20.671 -27.376  0.00  0.00    +0.024 C 
ATOM     72  CB  PRO A  11     -25.094 -19.297 -27.802  0.00  0.00    +0.031 C 
ATOM     73  CA  PRO A  11     -26.219 -18.456 -27.204  0.00  0.00    +0.152 C 
BRANCH  73  74
ATOM     74  C   PRO A  11     -27.262 -18.094 -28.228  0.00  0.00    +0.241 C 
ATOM     75  N   ILE A  12     -28.469 -18.611 -28.054  0.00  0.00    -0.298 N 
ATOM     76  H   ILE A  12     -28.657 -19.190 -27.211  0.00  0.00    +0.150 HD
ATOM     77  O   PRO A  11     -26.987 -17.319 -29.133  0.00  0.00    -0.273 OA
BRANCH  75  78
ATOM     78  CA  ILE A  12     -29.529 -18.389 -29.009  0.00  0.00    +0.137 C 
BRANCH  78  79
ATOM     79  CB  ILE A  12     -29.718 -19.709 -29.787  0.00  0.00    +0.026 C 
ATOM     80  CG2 ILE A  12     -28.320 -20.247 -30.214  0.00  0.00    +0.002 C 
BRANCH  79  81
ATOM     81  CG1 ILE A  12     -30.375 -20.750 -28.872  0.00  0.00    +0.002 C 
ATOM     82  CD1 ILE A  12     -30.804 -22.039 -29.583  0.00  0.00    +0.000 C 
ENDBRANCH  79  81
ENDBRANCH  78  79
BRANCH  78  83
ATOM     83  C   ILE A  12     -30.843 -17.902 -28.393  0.00  0.00    +0.227 C 
ATOM     84  O   ILE A  12     -31.891 -17.923 -29.037  0.00  0.00    -0.286 OA
ENDBRANCH  78  83
ENDBRANCH  75  78
ENDBRANCH  73  74
ENDBRANCH  66  67
BRANCH  66  85
ATOM     85  CB  ASN A  10     -26.579 -19.504 -23.000  0.00  0.00    +0.114 C 
BRANCH  85  86
ATOM     86  CG  ASN A  10     -26.939 -19.528 -21.548  0.00  0.00    +0.222 C 
ATOM     87  ND2 ASN A  10     -26.005 -19.975 -20.725  0.00  0.00    -0.329 N 
ATOM     88 HD21 ASN A  10     -26.180 -19.993 -19.700  0.00  0.00    +0.145 HD
ATOM     89 HD22 ASN A  10     -25.095 -20.309 -21.103  0.00  0.00    +0.145 HD
ATOM     90  OD1 ASN A  10     -28.039 -19.119 -21.154  0.00  0.00    -0.275 OA
ENDBRANCH  85  86
ENDBRANCH  66  85
ENDBRANCH  63  66
ENDBRANCH  61  62
BRANCH  61  91
ATOM     91  CB  TRP A   9     -30.952 -22.557 -24.323  0.00  0.00    +0.057 C 
BRANCH  91  92
ATOM     92  CG  TRP A   9     -31.718 -23.715 -24.852  0.00  0.00    -0.002 A 
ATOM     93  CD1 TRP A   9     -31.547 -25.031 -24.550  0.00  0.00    +0.068 A 
ATOM     94  NE1 TRP A   9     -32.428 -25.797 -25.272  0.00  0.00    -0.352 N 
ATOM     95  HE1 TRP A   9     -32.508 -26.833 -25.224  0.00  0.00    +0.166 HD
ATOM     96  CE2 TRP A   9     -33.185 -24.977 -26.065  0.00  0.00    +0.056 A 
ATOM     97  CZ2 TRP A   9     -34.206 -25.282 -26.974  0.00  0.00    +0.017 A 
ATOM     98  CH2 TRP A   9     -34.796 -24.236 -27.641  0.00  0.00    +0.001 A 
ATOM     99  CZ3 TRP A   9     -34.402 -22.904 -27.413  0.00  0.00    +0.000 A 
ATOM    100  CE3 TRP A   9     -33.382 -22.603 -26.508  0.00  0.00    +0.001 A 
ATOM    101  CD2 TRP A   9     -32.767 -23.652 -25.815  0.00  0.00    +0.013 A 
ENDBRANCH  91  92
ENDBRANCH  61  91
ENDBRANCH  58  61
ENDBRANCH  56  57
BRANCH  56 102
ATOM    102  CB  THR A   8     -28.154 -26.196 -25.965  0.00  0.00    +0.137 C 
ATOM    103  CG2 THR A   8     -29.054 -26.200 -27.247  0.00  0.00    +0.034 C 
BRANCH 102 104
ATOM    104  OG1 THR A   8     -27.336 -27.362 -25.994  0.00  0.00    -0.382 OA
ATOM    105  HG1 THR A   8     -26.779 -27.393 -25.176  0.00  0.00    +0.210 HD
ENDBRANCH 102 104
ENDBRANCH  56 102
ENDBRANCH   2  56
TORSDOF 37
REMARK  Name = ../refined-set-2016/3rt4/3rt4_pocket.pdb
REMARK  310 active torsions:
REMARK  status: ('A' for Active; 'I' for Inactive)
REMARK    1  A    between atoms: _1  and  _3
REMARK    2  A    between atoms: _3  and  _4
REMARK    3  A    between atoms: _3  and  _6
REMARK    4  A    between atoms: _6  and  _7
REMARK    5  A    between atoms: _7  and  _8
REMARK    6  A    between atoms: _8  and  _9
REMARK    7  A    between atoms: _18  and  _20
REMARK    8  A    between atoms: _20  and  _21
REMARK    9  A    between atoms: _20  and  _23
REMARK   10  A    between atoms: _26  and  _28
REMARK   11  A    between atoms: _28  and  _29
REMARK   12  A    between atoms: _28  and  _31
REMARK   13  A    between atoms: _31  and  _32
REMARK   14  A    between atoms: _32  and  _33
REMARK   15  A    between atoms: _33  and  _34
REMARK   16  A    between atoms: _43  and  _45
REMARK   17  A    between atoms: _45  and  _46
REMARK   18  A    between atoms: _45  and  _48
REMARK   19  A    between atoms: _48  and  _49
REMARK   20  A    between atoms: _51  and  _53
REMARK   21  A    between atoms: _53  and  _54
REMARK   22  A    between atoms: _53  and  _56
REMARK   23  A    between atoms: _56  and  _57
REMARK   24  A    between atoms: _62  and  _64
REMARK   25  A    between atoms: _64  and  _65
REMARK   26  A    between atoms: _64  and  _67
REMARK   27  A    between atoms: _67  and  _68
REMARK   28  A    between atoms: _73  and  _74
REMARK   29  A    between atoms: _76  and  _78
REMARK   30  A    between atoms: _78  and  _79
REMARK   31  A    between atoms: _78  and  _81
REMARK   32  A    between atoms: _81  and  _82
REMARK   33  A    between atoms: _82  and  _83
REMARK   34  A    between atoms: _86  and  _88
REMARK   35  A    between atoms: _88  and  _89
REMARK   36  A    between atoms: _88  and  _91
REMARK   37  A    between atoms: _91  and  _92
REMARK   38  A    between atoms: _92  and  _93
REMARK   39  A    between atoms: _93  and  _94
REMARK   40  A    between atoms: _94  and  _95
REMARK   41  A    between atoms: _99  and  _101
REMARK   42  A    between atoms: _101  and  _102
REMARK   43  A    between atoms: _101  and  _104
REMARK   44  A    between atoms: _104  and  _105
REMARK   45  A    between atoms: _110  and  _111
REMARK   46  A    between atoms: _113  and  _115
REMARK   47  A    between atoms: _115  and  _116
REMARK   48  A    between atoms: _115  and  _118
REMARK   49  A    between atoms: _118  and  _119
REMARK   50  A    between atoms: _119  and  _120
REMARK   51  A    between atoms: _120  and  _121
REMARK   52  A    between atoms: _130  and  _132
REMARK   53  A    between atoms: _132  and  _133
REMARK   54  A    between atoms: _136  and  _138
REMARK   55  A    between atoms: _138  and  _139
REMARK   56  A    between atoms: _138  and  _141
REMARK   57  A    between atoms: _141  and  _142
REMARK   58  A    between atoms: _142  and  _258
REMARK   59  A    between atoms: _143  and  _145
REMARK   60  A    between atoms: _145  and  _146
REMARK   61  A    between atoms: _145  and  _148
REMARK   62  A    between atoms: _148  and  _149
REMARK   63  A    between atoms: _149  and  _150
REMARK   64  A    between atoms: _153  and  _155
REMARK   65  A    between atoms: _155  and  _156
REMARK   66  A    between atoms: _155  and  _158
REMARK   67  A    between atoms: _158  and  _159
REMARK   68  A    between atoms: _161  and  _163
REMARK   69  A    between atoms: _163  and  _164
REMARK   70  A    between atoms: _163  and  _166
REMARK   71  A    between atoms: _166  and  _167
REMARK   72  A    between atoms: _172  and  _173
REMARK   73  A    between atoms: _175  and  _177
REMARK   74  A    between atoms: _177  and  _178
REMARK   75  A    between atoms: _177  and  _180
REMARK   76  A    between atoms: _180  and  _181
REMARK   77  A    between atoms: _186  and  _188
REMARK   78  A    between atoms: _188  and  _189
REMARK   79  A    between atoms: _188  and  _191
REMARK   80  A    between atoms: _194  and  _196
REMARK   81  A    between atoms: _196  and  _197
REMARK   82  A    between atoms: _196  and  _199
REMARK   83  A    between atoms: _199  and  _200
REMARK   84  A    between atoms: _200  and  _201
REMARK   85  A    between atoms: _201  and  _202
REMARK   86  A    between atoms: _211  and  _213
REMARK   87  A    between atoms: _213  and  _214
REMARK   88  A    between atoms: _213  and  _216
REMARK   89  A    between atoms: _216  and  _217
REMARK   90  A    between atoms: _222  and  _224
REMARK   91  A    between atoms: _224  and  _225
REMARK   92  A    between atoms: _224  and  _227
REMARK   93  A    between atoms: _227  and  _228
REMARK   94  A    between atoms: _231  and  _233
REMARK   95  A    between atoms: _233  and  _234
REMARK   96  A    between atoms: _236  and  _238
REMARK   97  A    between atoms: _238  and  _239
REMARK   98  A    between atoms: _238  and  _241
REMARK   99  A    between atoms: _241  and  _242
REMARK  100  A    between atoms: _252  and  _254
REMARK  101  A    between atoms: _254  and  _255
REMARK  102  A    between atoms: _254  and  _257
REMARK  103  A    between atoms: _257  and  _258
REMARK  104  A    between atoms: _259  and  _261
REMARK  105  A    between atoms: _261  and  _262
REMARK  106  A    between atoms: _261  and  _264
REMARK  107  A    between atoms: _264  and  _265
REMARK  108  A    between atoms: _268  and  _270
REMARK  109  A    between atoms: _270  and  _271
REMARK  110  A    between atoms: _273  and  _275
REMARK  111  A    between atoms: _275  and  _276
REMARK  112  A    between atoms: _275  and  _278
REMARK  113  A    between atoms: _278  and  _279
REMARK  114  A    between atoms: _284  and  _285
REMARK  115  A    between atoms: _287  and  _289
REMARK  116  A    between atoms: _289  and  _290
REMARK  117  A    between atoms: _289  and  _292
REMARK  118  A    between atoms: _292  and  _293
REMARK  119  A    between atoms: _293  and  _294
REMARK  120  A    between atoms: _294  and  _295
REMARK  121  A    between atoms: _304  and  _306
REMARK  122  A    between atoms: _306  and  _307
REMARK  123  A    between atoms: _306  and  _309
REMARK  124  A    between atoms: _309  and  _310
REMARK  125  A    between atoms: _310  and  _311
REMARK  126  A    between atoms: _311  and  _312
REMARK  127  A    between atoms: _312  and  _313
REMARK  128  A    between atoms: _317  and  _319
REMARK  129  A    between atoms: _319  and  _320
REMARK  130  A    between atoms: _322  and  _324
REMARK  131  A    between atoms: _324  and  _325
REMARK  132  A    between atoms: _328  and  _330
REMARK  133  A    between atoms: _330  and  _331
REMARK  134  A    between atoms: _330  and  _333
REMARK  135  A    between atoms: _333  and  _334
REMARK  136  A    between atoms: _339  and  _341
REMARK  137  A    between atoms: _341  and  _342
REMARK  138  A    between atoms: _345  and  _347
REMARK  139  A    between atoms: _347  and  _348
REMARK  140  A    between atoms: _351  and  _352
REMARK  141  A    between atoms: _357  and  _359
REMARK  142  A    between atoms: _359  and  _360
REMARK  143  A    between atoms: _359  and  _362
REMARK  144  A    between atoms: _362  and  _363
REMARK  145  A    between atoms: _366  and  _368
REMARK  146  A    between atoms: _368  and  _369
REMARK  147  A    between atoms: _368  and  _371
REMARK  148  A    between atoms: _371  and  _372
REMARK  149  A    between atoms: _382  and  _384
REMARK  150  A    between atoms: _384  and  _385
REMARK  151  A    between atoms: _384  and  _387
REMARK  152  A    between atoms: _387  and  _388
REMARK  153  A    between atoms: _394  and  _395
REMARK  154  A    between atoms: _400  and  _402
REMARK  155  A    between atoms: _402  and  _403
REMARK  156  A    between atoms: _402  and  _405
REMARK  157  A    between atoms: _405  and  _406
REMARK  158  A    between atoms: _409  and  _411
REMARK  159  A    between atoms: _411  and  _412
REMARK  160  A    between atoms: _411  and  _414
REMARK  161  A    between atoms: _414  and  _415
REMARK  162  A    between atoms: _417  and  _419
REMARK  163  A    between atoms: _419  and  _420
REMARK  164  A    between atoms: _419  and  _422
REMARK  165  A    between atoms: _422  and  _423
REMARK  166  A    between atoms: _428  and  _430
REMARK  167  A    between atoms: _430  and  _431
REMARK  168  A    between atoms: _430  and  _433
REMARK  169  A    between atoms: _436  and  _438
REMARK  170  A    between atoms: _438  and  _439
REMARK  171  A    between atoms: _438  and  _441
REMARK  172  A    between atoms: _441  and  _442
REMARK  173  A    between atoms: _442  and  _443
REMARK  174  A    between atoms: _449  and  _450
REMARK  175  A    between atoms: _455  and  _457
REMARK  176  A    between atoms: _457  and  _458
REMARK  177  A    between atoms: _457  and  _460
REMARK  178  A    between atoms: _460  and  _461
REMARK  179  A    between atoms: _464  and  _466
REMARK  180  A    between atoms: _466  and  _467
REMARK  181  A    between atoms: _466  and  _469
REMARK  182  A    between atoms: _469  and  _470
REMARK  183  A    between atoms: _473  and  _475
REMARK  184  A    between atoms: _475  and  _476
REMARK  185  A    between atoms: _475  and  _478
REMARK  186  A    between atoms: _478  and  _479
REMARK  187  A    between atoms: _481  and  _483
REMARK  188  A    between atoms: _483  and  _484
REMARK  189  A    between atoms: _483  and  _486
REMARK  190  A    between atoms: _486  and  _487
REMARK  191  A    between atoms: _492  and  _493
REMARK  192  A    between atoms: _495  and  _497
REMARK  193  A    between atoms: _497  and  _498
REMARK  194  A    between atoms: _497  and  _500
REMARK  195  A    between atoms: _500  and  _501
REMARK  196  A    between atoms: _506  and  _508
REMARK  197  A    between atoms: _508  and  _509
REMARK  198  A    between atoms: _508  and  _511
REMARK  199  A    between atoms: _511  and  _512
REMARK  200  A    between atoms: _515  and  _517
REMARK  201  A    between atoms: _517  and  _518
REMARK  202  A    between atoms: _517  and  _520
REMARK  203  A    between atoms: _520  and  _521
REMARK  204  A    between atoms: _531  and  _533
REMARK  205  A    between atoms: _533  and  _534
REMARK  206  A    between atoms: _536  and  _538
REMARK  207  A    between atoms: _538  and  _539
REMARK  208  A    between atoms: _538  and  _541
REMARK  209  A    between atoms: _541  and  _542
REMARK  210  A    between atoms: _547  and  _548
REMARK  211  A    between atoms: _550  and  _552
REMARK  212  A    between atoms: _552  and  _553
REMARK  213  A    between atoms: _552  and  _555
REMARK  214  A    between atoms: _555  and  _556
REMARK  215  A    between atoms: _556  and  _557
REMARK  216  A    between atoms: _557  and  _558
REMARK  217  A    between atoms: _567  and  _569
REMARK  218  A    between atoms: _569  and  _570
REMARK  219  A    between atoms: _569  and  _572
REMARK  220  A    between atoms: _572  and  _573
REMARK  221  A    between atoms: _573  and  _574
REMARK  222  A    between atoms: _574  and  _575
REMARK  223  A    between atoms: _575  and  _576
REMARK  224  A    between atoms: _580  and  _582
REMARK  225  A    between atoms: _582  and  _583
REMARK  226  A    between atoms: _585  and  _587
REMARK  227  A    between atoms: _587  and  _588
REMARK  228  A    between atoms: _591  and  _593
REMARK  229  A    between atoms: _593  and  _594
REMARK  230  A    between atoms: _593  and  _596
REMARK  231  A    between atoms: _596  and  _597
REMARK  232  A    between atoms: _602  and  _604
REMARK  233  A    between atoms: _604  and  _605
REMARK  234  A    between atoms: _608  and  _610
REMARK  235  A    between atoms: _610  and  _611
REMARK  236  A    between atoms: _614  and  _615
REMARK  237  A    between atoms: _620  and  _622
REMARK  238  A    between atoms: _622  and  _623
REMARK  239  A    between atoms: _622  and  _625
REMARK  240  A    between atoms: _625  and  _626
REMARK  241  A    between atoms: _629  and  _631
REMARK  242  A    between atoms: _631  and  _632
REMARK  243  A    between atoms: _631  and  _634
REMARK  244  A    between atoms: _634  and  _635
REMARK  245  A    between atoms: _645  and  _647
REMARK  246  A    between atoms: _647  and  _648
REMARK  247  A    between atoms: _647  and  _650
REMARK  248  A    between atoms: _650  and  _651
REMARK  249  A    between atoms: _657  and  _658
REMARK  250  A    between atoms: _663  and  _665
REMARK  251  A    between atoms: _665  and  _666
REMARK  252  A    between atoms: _665  and  _668
REMARK  253  A    between atoms: _668  and  _669
REMARK  254  A    between atoms: _672  and  _674
REMARK  255  A    between atoms: _674  and  _675
REMARK  256  A    between atoms: _674  and  _677
REMARK  257  A    between atoms: _677  and  _678
REMARK  258  A    between atoms: _678  and  _679
REMARK  259  A    between atoms: _682  and  _684
REMARK  260  A    between atoms: _684  and  _685
REMARK  261  A    between atoms: _684  and  _687
REMARK  262  A    between atoms: _687  and  _688
REMARK  263  A    between atoms: _688  and  _689
REMARK  264  A    between atoms: _689  and  _690
REMARK  265  A    between atoms: _690  and  _691
REMARK  266  A    between atoms: _695  and  _697
REMARK  267  A    between atoms: _697  and  _698
REMARK  268  A    between atoms: _700  and  _702
REMARK  269  A    between atoms: _702  and  _703
REMARK  270  A    between atoms: _702  and  _705
REMARK  271  A    between atoms: _705  and  _706
REMARK  272  A    between atoms: _711  and  _713
REMARK  273  A    between atoms: _713  and  _714
REMARK  274  A    between atoms: _713  and  _716
REMARK  275  A    between atoms: _716  and  _717
REMARK  276  A    between atoms: _717  and  _718
REMARK  277  A    between atoms: _718  and  _719
REMARK  278  A    between atoms: _728  and  _730
REMARK  279  A    between atoms: _730  and  _731
REMARK  280  A    between atoms: _730  and  _733
REMARK  281  A    between atoms: _733  and  _734
REMARK  282  A    between atoms: _737  and  _739
REMARK  283  A    between atoms: _739  and  _740
REMARK  284  A    between atoms: _739  and  _742
REMARK  285  A    between atoms: _745  and  _747
REMARK  286  A    between atoms: _747  and  _748
REMARK  287  A    between atoms: _747  and  _750
REMARK  288  A    between atoms: _750  and  _751
REMARK  289  A    between atoms: _751  and  _752
REMARK  290  A    between atoms: _758  and  _759
REMARK  291  A    between atoms: _764  and  _766
REMARK  292  A    between atoms: _766  and  _767
REMARK  293  A    between atoms: _766  and  _769
REMARK  294  A    between atoms: _769  and  _770
REMARK  295  A    between atoms: _773  and  _775
REMARK  296  A    between atoms: _775  and  _776
REMARK  297  A    between atoms: _775  and  _778
REMARK  298  A    between atoms: _778  and  _779
REMARK  299  A    between atoms: _782  and  _784
REMARK  300  A    between atoms: _784  and  _785
REMARK  301  A    between atoms: _784  and  _787
REMARK  302  A    between atoms: _787  and  _788
REMARK  303  A    between atoms: _790  and  _792
REMARK  304  A    between atoms: _792  and  _793
REMARK  305  A    between atoms: _792  and  _795
REMARK  306  A    between atoms: _795  and  _796
REMARK  307  A    between atoms: _796  and  _797
REMARK  308  A    between atoms: _797  and  _798
REMARK  309  A    between atoms: _807  and  _809
REMARK  310  A    between atoms: _809  and  _810
REMARK                            x       y       z     vdW  Elec       q    Type
REMARK                         _______ _______ _______ _____ _____    ______ ____
ROOT
ATOM      1  CA  GLU A   1     -40.623 -18.796 -29.497  0.00  0.00    +0.134 C 
ENDROOT
BRANCH   1   2
ATOM      2  N   GLU A   1     -39.927 -17.783 -30.261  0.00  0.00    -0.239 NA
ATOM      3  H   GLU A   1     -38.887 -17.788 -30.291  0.00  0.00    +0.142 HD
ENDBRANCH   1   2
BRANCH   1   4
ATOM      4  C   GLU A   1     -40.207 -18.684 -28.063  0.00  0.00    +0.224 C 
ATOM      5  O   GLU A   1     -39.031 -18.504 -27.734  0.00  0.00    -0.287 OA
ENDBRANCH   1   4
BRANCH   1   6
ATOM      6  CB  GLU A   1     -40.301 -20.212 -29.990  0.00  0.00    +0.037 C 
BRANCH   6   7
ATOM      7  CG  GLU A   1     -40.153 -20.327 -31.486  0.00  0.00    +0.116 C 
BRANCH   7   8
ATOM      8  CD  GLU A   1     -40.067 -21.758 -31.995  0.00  0.00    +0.365 C 
ATOM      9  OE2 GLU A   1     -39.691 -22.669 -31.223  0.00  0.00    -0.246 OA
ATOM     10  OE1 GLU A   1     -40.348 -21.966 -33.196  0.00  0.00    -0.246 OA
ENDBRANCH   7   8
ENDBRANCH   6   7
ENDBRANCH   1   6
TORSDOF 5
REMARK  Name = ../refined-set-2016/3rt4/3rt4_pocket.pdb
REMARK  310 active torsions:
REMARK  status: ('A' for Active; 'I' for Inactive)
REMARK    1  A    between atoms: _1  and  _3
REMARK    2  A    between atoms: _3  and  _4
REMARK    3  A    between atoms: _3  and  _6
REMARK    4  A    between atoms: _6  and  _7
REMARK    5  A    between atoms: _7  and  _8
REMARK    6  A    between atoms: _8  and  _9
REMARK    7  A    between atoms: _18  and  _20
REMARK    8  A    between atoms: _20  and  _21
REMARK    9  A    between atoms: _20  and  _23
REMARK   10  A    between atoms: _26  and  _28
REMARK   11  A    between atoms: _28  and  _29
REMARK   12  A    between atoms: _28  and  _31
REMARK   13  A    between atoms: _31  and  _32
REMARK   14  A    between atoms: _32  and  _33
REMARK   15  A    between atoms: _33  and  _34
REMARK   16  A    between atoms: _43  and  _45
REMARK   17  A    between atoms: _45  and  _46
REMARK   18  A    between atoms: _45  and  _48
REMARK   19  A    between atoms: _48  and  _49
REMARK   20  A    between atoms: _51  and  _53
REMARK   21  A    between atoms: _53  and  _54
REMARK   22  A    between atoms: _53  and  _56
REMARK   23  A    between atoms: _56  and  _57
REMARK   24  A    between atoms: _62  and  _64
REMARK   25  A    between atoms: _64  and  _65
REMARK   26  A    between atoms: _64  and  _67
REMARK   27  A    between atoms: _67  and  _68
REMARK   28  A    between atoms: _73  and  _74
REMARK   29  A    between atoms: _76  and  _78
REMARK   30  A    between atoms: _78  and  _79
REMARK   31  A    between atoms: _78  and  _81
REMARK   32  A    between atoms: _81  and  _82
REMARK   33  A    between atoms: _82  and  _83
REMARK   34  A    between atoms: _86  and  _88
REMARK   35  A    between atoms: _88  and  _89
REMARK   36  A    between atoms: _88  and  _91
REMARK   37  A    between atoms: _91  and  _92
REMARK   38  A    between atoms: _92  and  _93
REMARK   39  A    between atoms: _93  and  _94
REMARK   40  A    between atoms: _94  and  _95
REMARK   41  A    between atoms: _99  and  _101
REMARK   42  A    between atoms: _101  and  _102
REMARK   43  A    between atoms: _101  and  _104
REMARK   44  A    between atoms: _104  and  _105
REMARK   45  A    between atoms: _110  and  _111
REMARK   46  A    between atoms: _113  and  _115
REMARK   47  A    between atoms: _115  and  _116
REMARK   48  A    between atoms: _115  and  _118
REMARK   49  A    between atoms: _118  and  _119
REMARK   50  A    between atoms: _119  and  _120
REMARK   51  A    between atoms: _120  and  _121
REMARK   52  A    between atoms: _130  and  _132
REMARK   53  A    between atoms: _132  and  _133
REMARK   54  A    between atoms: _136  and  _138
REMARK   55  A    between atoms: _138  and  _139
REMARK   56  A    between atoms: _138  and  _141
REMARK   57  A    between atoms: _141  and  _142
REMARK   58  A    between atoms: _142  and  _258
REMARK   59  A    between atoms: _143  and  _145
REMARK   60  A    between atoms: _145  and  _146
REMARK   61  A    between atoms: _145  and  _148
REMARK   62  A    between atoms: _148  and  _149
REMARK   63  A    between atoms: _149  and  _150
REMARK   64  A    between atoms: _153  and  _155
REMARK   65  A    between atoms: _155  and  _156
REMARK   66  A    between atoms: _155  and  _158
REMARK   67  A    between atoms: _158  and  _159
REMARK   68  A    between atoms: _161  and  _163
REMARK   69  A    between atoms: _163  and  _164
REMARK   70  A    between atoms: _163  and  _166
REMARK   71  A    between atoms: _166  and  _167
REMARK   72  A    between atoms: _172  and  _173
REMARK   73  A    between atoms: _175  and  _177
REMARK   74  A    between atoms: _177  and  _178
REMARK   75  A    between atoms: _177  and  _180
REMARK   76  A    between atoms: _180  and  _181
REMARK   77  A    between atoms: _186  and  _188
REMARK   78  A    between atoms: _188  and  _189
REMARK   79  A    between atoms: _188  and  _191
REMARK   80  A    between atoms: _194  and  _196
REMARK   81  A    between atoms: _196  and  _197
REMARK   82  A    between atoms: _196  and  _199
REMARK   83  A    between atoms: _199  and  _200
REMARK   84  A    between atoms: _200  and  _201
REMARK   85  A    between atoms: _201  and  _202
REMARK   86  A    between atoms: _211  and  _213
REMARK   87  A    between atoms: _213  and  _214
REMARK   88  A    between atoms: _213  and  _216
REMARK   89  A    between atoms: _216  and  _217
REMARK   90  A    between atoms: _222  and  _224
REMARK   91  A    between atoms: _224  and  _225
REMARK   92  A    between atoms: _224  and  _227
REMARK   93  A    between atoms: _227  and  _228
REMARK   94  A    between atoms: _231  and  _233
REMARK   95  A    between atoms: _233  and  _234
REMARK   96  A    between atoms: _236  and  _238
REMARK   97  A    between atoms: _238  and  _239
REMARK   98  A    between atoms: _238  and  _241
REMARK   99  A    between atoms: _241  and  _242
REMARK  100  A    between atoms: _252  and  _254
REMARK  101  A    between atoms: _254  and  _255
REMARK  102  A    between atoms: _254  and  _257
REMARK  103  A    between atoms: _257  and  _258
REMARK  104  A    between atoms: _259  and  _261
REMARK  105  A    between atoms: _261  and  _262
REMARK  106  A    between atoms: _261  and  _264
REMARK  107  A    between atoms: _264  and  _265
REMARK  108  A    between atoms: _268  and  _270
REMARK  109  A    between atoms: _270  and  _271
REMARK  110  A    between atoms: _273  and  _275
REMARK  111  A    between atoms: _275  and  _276
REMARK  112  A    between atoms: _275  and  _278
REMARK  113  A    between atoms: _278  and  _279
REMARK  114  A    between atoms: _284  and  _285
REMARK  115  A    between atoms: _287  and  _289
REMARK  116  A    between atoms: _289  and  _290
REMARK  117  A    between atoms: _289  and  _292
REMARK  118  A    between atoms: _292  and  _293
REMARK  119  A    between atoms: _293  and  _294
REMARK  120  A    between atoms: _294  and  _295
REMARK  121  A    between atoms: _304  and  _306
REMARK  122  A    between atoms: _306  and  _307
REMARK  123  A    between atoms: _306  and  _309
REMARK  124  A    between atoms: _309  and  _310
REMARK  125  A    between atoms: _310  and  _311
REMARK  126  A    between atoms: _311  and  _312
REMARK  127  A    between atoms: _312  and  _313
REMARK  128  A    between atoms: _317  and  _319
REMARK  129  A    between atoms: _319  and  _320
REMARK  130  A    between atoms: _322  and  _324
REMARK  131  A    between atoms: _324  and  _325
REMARK  132  A    between atoms: _328  and  _330
REMARK  133  A    between atoms: _330  and  _331
REMARK  134  A    between atoms: _330  and  _333
REMARK  135  A    between atoms: _333  and  _334
REMARK  136  A    between atoms: _339  and  _341
REMARK  137  A    between atoms: _341  and  _342
REMARK  138  A    between atoms: _345  and  _347
REMARK  139  A    between atoms: _347  and  _348
REMARK  140  A    between atoms: _351  and  _352
REMARK  141  A    between atoms: _357  and  _359
REMARK  142  A    between atoms: _359  and  _360
REMARK  143  A    between atoms: _359  and  _362
REMARK  144  A    between atoms: _362  and  _363
REMARK  145  A    between atoms: _366  and  _368
REMARK  146  A    between atoms: _368  and  _369
REMARK  147  A    between atoms: _368  and  _371
REMARK  148  A    between atoms: _371  and  _372
REMARK  149  A    between atoms: _382  and  _384
REMARK  150  A    between atoms: _384  and  _385
REMARK  151  A    between atoms: _384  and  _387
REMARK  152  A    between atoms: _387  and  _388
REMARK  153  A    between atoms: _394  and  _395
REMARK  154  A    between atoms: _400  and  _402
REMARK  155  A    between atoms: _402  and  _403
REMARK  156  A    between atoms: _402  and  _405
REMARK  157  A    between atoms: _405  and  _406
REMARK  158  A    between atoms: _409  and  _411
REMARK  159  A    between atoms: _411  and  _412
REMARK  160  A    between atoms: _411  and  _414
REMARK  161  A    between atoms: _414  and  _415
REMARK  162  A    between atoms: _417  and  _419
REMARK  163  A    between atoms: _419  and  _420
REMARK  164  A    between atoms: _419  and  _422
REMARK  165  A    between atoms: _422  and  _423
REMARK  166  A    between atoms: _428  and  _430
REMARK  167  A    between atoms: _430  and  _431
REMARK  168  A    between atoms: _430  and  _433
REMARK  169  A    between atoms: _436  and  _438
REMARK  170  A    between atoms: _438  and  _439
REMARK  171  A    between atoms: _438  and  _441
REMARK  172  A    between atoms: _441  and  _442
REMARK  173  A    between atoms: _442  and  _443
REMARK  174  A    between atoms: _449  and  _450
REMARK  175  A    between atoms: _455  and  _457
REMARK  176  A    between atoms: _457  and  _458
REMARK  177  A    between atoms: _457  and  _460
REMARK  178  A    between atoms: _460  and  _461
REMARK  179  A    between atoms: _464  and  _466
REMARK  180  A    between atoms: _466  and  _467
REMARK  181  A    between atoms: _466  and  _469
REMARK  182  A    between atoms: _469  and  _470
REMARK  183  A    between atoms: _473  and  _475
REMARK  184  A    between atoms: _475  and  _476
REMARK  185  A    between atoms: _475  and  _478
REMARK  186  A    between atoms: _478  and  _479
REMARK  187  A    between atoms: _481  and  _483
REMARK  188  A    between atoms: _483  and  _484
REMARK  189  A    between atoms: _483  and  _486
REMARK  190  A    between atoms: _486  and  _487
REMARK  191  A    between atoms: _492  and  _493
REMARK  192  A    between atoms: _495  and  _497
REMARK  193  A    between atoms: _497  and  _498
REMARK  194  A    between atoms: _497  and  _500
REMARK  195  A    between atoms: _500  and  _501
REMARK  196  A    between atoms: _506  and  _508
REMARK  197  A    between atoms: _508  and  _509
REMARK  198  A    between atoms: _508  and  _511
REMARK  199  A    between atoms: _511  and  _512
REMARK  200  A    between atoms: _515  and  _517
REMARK  201  A    between atoms: _517  and  _518
REMARK  202  A    between atoms: _517  and  _520
REMARK  203  A    between atoms: _520  and  _521
REMARK  204  A    between atoms: _531  and  _533
REMARK  205  A    between atoms: _533  and  _534
REMARK  206  A    between atoms: _536  and  _538
REMARK  207  A    between atoms: _538  and  _539
REMARK  208  A    between atoms: _538  and  _541
REMARK  209  A    between atoms: _541  and  _542
REMARK  210  A    between atoms: _547  and  _548
REMARK  211  A    between atoms: _550  and  _552
REMARK  212  A    between atoms: _552  and  _553
REMARK  213  A    between atoms: _552  and  _555
REMARK  214  A    between atoms: _555  and  _556
REMARK  215  A    between atoms: _556  and  _557
REMARK  216  A    between atoms: _557  and  _558
REMARK  217  A    between atoms: _567  and  _569
REMARK  218  A    between atoms: _569  and  _570
REMARK  219  A    between atoms: _569  and  _572
REMARK  220  A    between atoms: _572  and  _573
REMARK  221  A    between atoms: _573  and  _574
REMARK  222  A    between atoms: _574  and  _575
REMARK  223  A    between atoms: _575  and  _576
REMARK  224  A    between atoms: _580  and  _582
REMARK  225  A    between atoms: _582  and  _583
REMARK  226  A    between atoms: _585  and  _587
REMARK  227  A    between atoms: _587  and  _588
REMARK  228  A    between atoms: _591  and  _593
REMARK  229  A    between atoms: _593  and  _594
REMARK  230  A    between atoms: _593  and  _596
REMARK  231  A    between atoms: _596  and  _597
REMARK  232  A    between atoms: _602  and  _604
REMARK  233  A    between atoms: _604  and  _605
REMARK  234  A    between atoms: _608  and  _610
REMARK  235  A    between atoms: _610  and  _611
REMARK  236  A    between atoms: _614  and  _615
REMARK  237  A    between atoms: _620  and  _622
REMARK  238  A    between atoms: _622  and  _623
REMARK  239  A    between atoms: _622  and  _625
REMARK  240  A    between atoms: _625  and  _626
REMARK  241  A    between atoms: _629  and  _631
REMARK  242  A    between atoms: _631  and  _632
REMARK  243  A    between atoms: _631  and  _634
REMARK  244  A    between atoms: _634  and  _635
REMARK  245  A    between atoms: _645  and  _647
REMARK  246  A    between atoms: _647  and  _648
REMARK  247  A    between atoms: _647  and  _650
REMARK  248  A    between atoms: _650  and  _651
REMARK  249  A    between atoms: _657  and  _658
REMARK  250  A    between atoms: _663  and  _665
REMARK  251  A    between atoms: _665  and  _666
REMARK  252  A    between atoms: _665  and  _668
REMARK  253  A    between atoms: _668  and  _669
REMARK  254  A    between atoms: _672  and  _674
REMARK  255  A    between atoms: _674  and  _675
REMARK  256  A    between atoms: _674  and  _677
REMARK  257  A    between atoms: _677  and  _678
REMARK  258  A    between atoms: _678  and  _679
REMARK  259  A    between atoms: _682  and  _684
REMARK  260  A    between atoms: _684  and  _685
REMARK  261  A    between atoms: _684  and  _687
REMARK  262  A    between atoms: _687  and  _688
REMARK  263  A    between atoms: _688  and  _689
REMARK  264  A    between atoms: _689  and  _690
REMARK  265  A    between atoms: _690  and  _691
REMARK  266  A    between atoms: _695  and  _697
REMARK  267  A    between atoms: _697  and  _698
REMARK  268  A    between atoms: _700  and  _702
REMARK  269  A    between atoms: _702  and  _703
REMARK  270  A    between atoms: _702  and  _705
REMARK  271  A    between atoms: _705  and  _706
REMARK  272  A    between atoms: _711  and  _713
REMARK  273  A    between atoms: _713  and  _714
REMARK  274  A    between atoms: _713  and  _716
REMARK  275  A    between atoms: _716  and  _717
REMARK  276  A    between atoms: _717  and  _718
REMARK  277  A    between atoms: _718  and  _719
REMARK  278  A    between atoms: _728  and  _730
REMARK  279  A    between atoms: _730  and  _731
REMARK  280  A    between atoms: _730  and  _733
REMARK  281  A    between atoms: _733  and  _734
REMARK  282  A    between atoms: _737  and  _739
REMARK  283  A    between atoms: _739  and  _740
REMARK  284  A    between atoms: _739  and  _742
REMARK  285  A    between atoms: _745  and  _747
REMARK  286  A    between atoms: _747  and  _748
REMARK  287  A    between atoms: _747  and  _750
REMARK  288  A    between atoms: _750  and  _751
REMARK  289  A    between atoms: _751  and  _752
REMARK  290  A    between atoms: _758  and  _759
REMARK  291  A    between atoms: _764  and  _766
REMARK  292  A    between atoms: _766  and  _767
REMARK  293  A    between atoms: _766  and  _769
REMARK  294  A    between atoms: _769  and  _770
REMARK  295  A    between atoms: _773  and  _775
REMARK  296  A    between atoms: _775  and  _776
REMARK  297  A    between atoms: _775  and  _778
REMARK  298  A    between atoms: _778  and  _779
REMARK  299  A    between atoms: _782  and  _784
REMARK  300  A    between atoms: _784  and  _785
REMARK  301  A    between atoms: _784  and  _787
REMARK  302  A    between atoms: _787  and  _788
REMARK  303  A    between atoms: _790  and  _792
REMARK  304  A    between atoms: _792  and  _793
REMARK  305  A    between atoms: _792  and  _795
REMARK  306  A    between atoms: _795  and  _796
REMARK  307  A    between atoms: _796  and  _797
REMARK  308  A    between atoms: _797  and  _798
REMARK  309  A    between atoms: _807  and  _809
REMARK  310  A    between atoms: _809  and  _810
REMARK                            x       y       z     vdW  Elec       q    Type
REMARK                         _______ _______ _______ _____ _____    ______ ____
ROOT
ATOM      1  C   ASP A   5     -37.230 -27.395 -21.677  0.00  0.00    +0.241 C 
ATOM      2  N   VAL A   6     -36.229 -26.662 -21.217  0.00  0.00    -0.297 N 
ATOM      3  H   VAL A   6     -36.403 -25.979 -20.453  0.00  0.00    +0.150 HD
ATOM      4  O   ASP A   5     -37.095 -28.257 -22.537  0.00  0.00    -0.273 OA
ENDROOT
BRANCH   2   5
ATOM      5  CA  VAL A   6     -34.897 -26.797 -21.761  0.00  0.00    +0.149 C 
BRANCH   5   6
ATOM      6  C   VAL A   6     -33.808 -27.192 -20.789  0.00  0.00    +0.241 C 
ATOM      7  N   GLN A   7     -34.099 -27.142 -19.499  0.00  0.00    -0.297 N 
ATOM      8  H   GLN A   7     -35.046 -26.825 -19.209  0.00  0.00    +0.150 HD
ATOM      9  O   VAL A   6     -32.731 -27.541 -21.208  0.00  0.00    -0.273 OA
BRANCH   7  10
ATOM     10  CA  GLN A   7     -33.134 -27.517 -18.468  0.00  0.00    +0.149 C 
BRANCH  10  11
ATOM     11  C   GLN A   7     -33.903 -28.283 -17.403  0.00  0.00    +0.244 C 
ATOM     12  N   PRO A   8     -33.221 -29.153 -16.627  0.00  0.00    -0.272 N 
ATOM     13  CA  PRO A   8     -33.921 -29.900 -15.579  0.00  0.00    +0.152 C 
ATOM     14  CB  PRO A   8     -32.969 -31.072 -15.295  0.00  0.00    +0.031 C 
ATOM     15  CG  PRO A   8     -31.579 -30.521 -15.593  0.00  0.00    +0.024 C 
ATOM     16  CD  PRO A   8     -31.783 -29.501 -16.716  0.00  0.00    +0.094 C 
ATOM     17  O   GLN A   7     -35.112 -28.098 -17.272  0.00  0.00    -0.273 OA
BRANCH  13  18
ATOM     18  C   PRO A   8     -34.096 -28.913 -14.416  0.00  0.00    +0.241 C 
ATOM     19  O   PRO A   8     -33.134 -28.567 -13.739  0.00  0.00    -0.273 OA
ATOM     20  N   THR A   9     -35.313 -28.424 -14.194  0.00  0.00    -0.295 N 
ATOM     21  H   THR A   9     -36.116 -28.740 -14.775  0.00  0.00    +0.150 HD
BRANCH  20  22
ATOM     22  CA  THR A   9     -35.520 -27.442 -13.133  0.00  0.00    +0.176 C 
BRANCH  22  23
ATOM     23  C   THR A   9     -37.014 -27.300 -12.954  0.00  0.00    +0.243 C 
ATOM     24  N   LEU A  10     -37.426 -26.800 -11.791  0.00  0.00    -0.297 N 
ATOM     25  H   LEU A  10     -36.721 -26.592 -11.055  0.00  0.00    +0.150 HD
ATOM     26  O   THR A   9     -37.772 -27.691 -13.847  0.00  0.00    -0.273 OA
BRANCH  24  27
ATOM     27  CA  LEU A  10     -38.833 -26.534 -11.515  0.00  0.00    +0.149 C 
BRANCH  27  28
ATOM     28  C   LEU A  10     -39.117 -25.131 -12.129  0.00  0.00    +0.241 C 
ATOM     29  N   SER A  11     -38.086 -24.357 -12.379  0.00  0.00    -0.296 N 
ATOM     30  H   SER A  11     -37.134 -24.714 -12.163  0.00  0.00    +0.150 HD
ATOM     31  O   LEU A  10     -40.263 -24.806 -12.435  0.00  0.00    -0.273 OA
BRANCH  29  32
ATOM     32  CA  SER A  11     -38.218 -22.992 -12.958  0.00  0.00    +0.166 C 
BRANCH  32  33
ATOM     33  C   SER A  11     -38.960 -23.094 -14.263  0.00  0.00    +0.229 C 
ATOM     34  O   SER A  11     -38.716 -23.987 -15.005  0.00  0.00    -0.286 OA
ENDBRANCH  32  33
BRANCH  32  35
ATOM     35  CB  SER A  11     -36.826 -22.410 -13.175  0.00  0.00    +0.165 C 
BRANCH  35  36
ATOM     36  OG  SER A  11     -36.790 -21.192 -13.845  0.00  0.00    -0.380 OA
ATOM     37  H   SER A  11     -35.850 -20.896 -13.938  0.00  0.00    +0.211 HD
ENDBRANCH  35  36
ENDBRANCH  32  35
ENDBRANCH  29  32
ENDBRANCH  27  28
BRANCH  27  38
ATOM     38  CB  LEU A  10     -39.095 -26.552 -10.001  0.00  0.00    +0.029 C 
BRANCH  38  39
ATOM     39  CG  LEU A  10     -39.167 -27.987  -9.470  0.00  0.00    +0.002 C 
ATOM     40  CD2 LEU A  10     -39.668 -27.967  -8.058  0.00  0.00    +0.000 C 
ATOM     41  CD1 LEU A  10     -40.117 -28.864 -10.302  0.00  0.00    +0.000 C 
ENDBRANCH  38  39
ENDBRANCH  27  38
ENDBRANCH  24  27
ENDBRANCH  22  23
BRANCH  22  42
ATOM     42  CB  THR A   9     -34.887 -26.028 -13.547  0.00  0.00    +0.137 C 
ATOM     43  CG2 THR A   9     -35.453 -25.544 -14.905  0.00  0.00    +0.034 C 
BRANCH  42  44
ATOM     44  OG1 THR A   9     -35.134 -25.031 -12.537  0.00  0.00    -0.382 OA
ATOM     45  HG1 THR A   9     -34.733 -24.171 -12.819  0.00  0.00    +0.210 HD
ENDBRANCH  42  44
ENDBRANCH  22  42
ENDBRANCH  20  22
ENDBRANCH  13  18
ENDBRANCH  10  11
BRANCH  10  46
ATOM     46  CB  GLN A   7     -32.507 -26.279 -17.819  0.00  0.00    +0.039 C 
BRANCH  46  47
ATOM     47  CG  GLN A   7     -31.572 -25.469 -18.699  0.00  0.00    +0.087 C 
BRANCH  47  48
ATOM     48  CD  GLN A   7     -30.162 -26.040 -18.774  0.00  0.00    +0.219 C 
ATOM     49  OE1 GLN A   7     -29.232 -25.541 -18.135  0.00  0.00    -0.275 OA
ATOM     50  NE2 GLN A   7     -30.001 -27.099 -19.550  0.00  0.00    -0.329 N 
ATOM     51 HE21 GLN A   7     -29.064 -27.542 -19.638  0.00  0.00    +0.145 HD
ATOM     52 HE22 GLN A   7     -30.811 -27.489 -20.072  0.00  0.00    +0.145 HD
ENDBRANCH  47  48
ENDBRANCH  46  47
ENDBRANCH  10  46
ENDBRANCH   7  10
ENDBRANCH   5   6
BRANCH   5  53
ATOM     53  CB  VAL A   6     -34.511 -25.434 -22.469  0.00  0.00    +0.027 C 
ATOM     54  CG2 VAL A   6     -34.339 -24.278 -21.426  0.00  0.00    +0.002 C 
ATOM     55  CG1 VAL A   6     -35.561 -25.095 -23.544  0.00  0.00    +0.002 C 
ENDBRANCH   5  53
ENDBRANCH   2   5
BRANCH   1  56
ATOM     56  CA  ASP A   5     -38.585 -27.123 -21.090  0.00  0.00    +0.160 C 
BRANCH  56  59
ATOM     57  C   ARG A   4     -38.131 -27.199 -18.686  0.00  0.00    +0.241 C 
ATOM     58  O   ARG A   4     -38.068 -28.424 -18.685  0.00  0.00    -0.273 OA
ATOM     59  N   ASP A   5     -38.392 -26.488 -19.781  0.00  0.00    -0.297 N 
ATOM     60  H   ASP A   5     -38.461 -25.453 -19.707  0.00  0.00    +0.150 HD
BRANCH  57  61
ATOM     61  CA  ARG A   4     -37.945 -26.426 -17.383  0.00  0.00    +0.149 C 
BRANCH  61  63
ATOM     62  C   HIS A   3     -36.824 -24.416 -18.229  0.00  0.00    +0.241 C 
ATOM     63  N   ARG A   4     -37.847 -24.986 -17.607  0.00  0.00    -0.297 N 
ATOM     64  H   ARG A   4     -38.617 -24.378 -17.262  0.00  0.00    +0.150 HD
ATOM     65  O   HIS A   3     -35.865 -25.034 -18.683  0.00  0.00    -0.273 OA
BRANCH  62  66
ATOM     66  CA  HIS A   3     -36.890 -22.904 -18.329  0.00  0.00    +0.155 C 
BRANCH  66  68
ATOM     67  C   GLY A   2     -38.836 -22.895 -19.806  0.00  0.00    +0.243 C 
ATOM     68  N   HIS A   3     -38.229 -22.465 -18.714  0.00  0.00    -0.297 N 
ATOM     69  H   HIS A   3     -38.725 -21.785 -18.103  0.00  0.00    +0.150 HD
ATOM     70  O   GLY A   2     -38.302 -23.692 -20.581  0.00  0.00    -0.273 OA
BRANCH  67  71
ATOM     71  CA  GLY A   2     -40.232 -22.344 -20.079  0.00  0.00    +0.176 C 
BRANCH  71  73
ATOM     72  C   LYS A   1     -39.824 -21.537 -22.295  0.00  0.00    +0.238 C 
ATOM     73  N   GLY A   2     -40.337 -22.473 -21.512  0.00  0.00    -0.296 N 
ATOM     74  H   GLY A   2     -40.814 -23.298 -21.928  0.00  0.00    +0.150 HD
ATOM     75  O   LYS A   1     -39.327 -20.500 -21.855  0.00  0.00    -0.274 OA
BRANCH  72  76
ATOM     76  CA  LYS A   1     -39.895 -21.799 -23.791  0.00  0.00    +0.145 C 
BRANCH  76  77
ATOM     77  N   LYS A   1     -40.005 -20.480 -24.414  0.00  0.00    -0.238 NA
ATOM     78  H   LYS A   1     -39.307 -19.750 -24.164  0.00  0.00    +0.142 HD
ENDBRANCH  76  77
BRANCH  76  79
ATOM     79  CB  LYS A   1     -38.586 -22.525 -24.154  0.00  0.00    +0.026 C 
BRANCH  79  80
ATOM     80  CG  LYS A   1     -38.303 -22.738 -25.626  0.00  0.00    -0.000 C 
BRANCH  80  81
ATOM     81  CD  LYS A   1     -39.106 -23.898 -26.162  0.00  0.00    -0.024 C 
BRANCH  81  82
ATOM     82  CE  LYS A   1     -38.572 -24.376 -27.497  0.00  0.00    -0.086 C 
BRANCH  82  83
ATOM     83  NZ  LYS A   1     -39.537 -24.147 -28.605  0.00  0.00    +0.380 N 
ATOM     84  HZ1 LYS A   1     -40.419 -24.662 -28.407  0.00  0.00    -0.089 HD
ATOM     85  HZ2 LYS A   1     -39.738 -23.130 -28.683  0.00  0.00    -0.089 HD
ATOM     86  HZ3 LYS A   1     -39.127 -24.490 -29.497  0.00  0.00    -0.089 HD
ENDBRANCH  82  83
ENDBRANCH  81  82
ENDBRANCH  80  81
ENDBRANCH  79  80
ENDBRANCH  76  79
ENDBRANCH  72  76
ENDBRANCH  71  73
ENDBRANCH  67  71
ENDBRANCH  66  68
BRANCH  66  87
ATOM     87  CB  HIS A   3     -36.530 -22.305 -16.968  0.00  0.00    +0.076 C 
BRANCH  87  88
ATOM     88  CG  HIS A   3     -35.090 -22.454 -16.577  0.00  0.00    +0.082 A 
ATOM     89  ND1 HIS A   3     -34.619 -21.967 -15.379  0.00  0.00    -0.227 NA
ATOM     90  CE1 HIS A   3     -33.327 -22.221 -15.277  0.00  0.00    +0.199 A 
ATOM     91  NE2 HIS A   3     -32.939 -22.851 -16.371  0.00  0.00    -0.221 NA
ATOM     92  CD2 HIS A   3     -34.023 -23.012 -17.204  0.00  0.00    +0.115 A 
ENDBRANCH  87  88
ENDBRANCH  66  87
ENDBRANCH  62  66
ENDBRANCH  61  63
BRANCH  61  93
ATOM     93  CB  ARG A   4     -39.125 -26.732 -16.446  0.00  0.00    +0.033 C 
BRANCH  93  94
ATOM     94  CG  ARG A   4     -40.466 -26.370 -17.102  0.00  0.00    +0.045 C 
BRANCH  94  95
ATOM     95  CD  ARG A   4     -41.699 -26.841 -16.344  0.00  0.00    +0.174 C 
BRANCH  95  96
ATOM     96  NE  ARG A   4     -41.699 -26.410 -14.946  0.00  0.00    -0.265 N 
ATOM     97  CZ  ARG A   4     -42.716 -26.574 -14.103  0.00  0.00    +0.342 C 
ATOM     98  NH2 ARG A   4     -42.609 -26.159 -12.850  0.00  0.00    -0.292 N 
ATOM     99 HH21 ARG A   4     -43.403 -26.287 -12.190  0.00  0.00    +0.255 HD
ATOM    100 HH22 ARG A   4     -41.731 -25.706 -12.526  0.00  0.00    +0.255 HD
ATOM    101  NH1 ARG A   4     -43.828 -27.167 -14.513  0.00  0.00    -0.292 N 
ATOM    102 HH11 ARG A   4     -44.622 -27.295 -13.854  0.00  0.00    +0.255 HD
ATOM    103 HH12 ARG A   4     -43.906 -27.504 -15.494  0.00  0.00    +0.255 HD
ATOM    104  HE  ARG A   4     -40.843 -25.942 -14.585  0.00  0.00    +0.259 HD
ENDBRANCH  95  96
ENDBRANCH  94  95
ENDBRANCH  93  94
ENDBRANCH  61  93
ENDBRANCH  57  61
ENDBRANCH  56  59
BRANCH  56 105
ATOM    105  CB  ASP A   5     -39.345 -26.240 -22.085  0.00  0.00    +0.143 C 
BRANCH 105 106
ATOM    106  CG  ASP A   5     -40.809 -26.096 -21.763  0.00  0.00    +0.367 C 
ATOM    107  OD2 ASP A   5     -41.402 -27.066 -21.266  0.00  0.00    -0.246 OA
ATOM    108  OD1 ASP A   5     -41.359 -25.010 -22.023  0.00  0.00    -0.246 OA
ENDBRANCH 105 106
ENDBRANCH  56 105
ENDBRANCH   1  56
TORSDOF 44
REMARK  Name = ../refined-set-2016/3rt4/3rt4_pocket.pdb
REMARK  310 active torsions:
REMARK  status: ('A' for Active; 'I' for Inactive)
REMARK    1  A    between atoms: _1  and  _3
REMARK    2  A    between atoms: _3  and  _4
REMARK    3  A    between atoms: _3  and  _6
REMARK    4  A    between atoms: _6  and  _7
REMARK    5  A    between atoms: _7  and  _8
REMARK    6  A    between atoms: _8  and  _9
REMARK    7  A    between atoms: _18  and  _20
REMARK    8  A    between atoms: _20  and  _21
REMARK    9  A    between atoms: _20  and  _23
REMARK   10  A    between atoms: _26  and  _28
REMARK   11  A    between atoms: _28  and  _29
REMARK   12  A    between atoms: _28  and  _31
REMARK   13  A    between atoms: _31  and  _32
REMARK   14  A    between atoms: _32  and  _33
REMARK   15  A    between atoms: _33  and  _34
REMARK   16  A    between atoms: _43  and  _45
REMARK   17  A    between atoms: _45  and  _46
REMARK   18  A    between atoms: _45  and  _48
REMARK   19  A    between atoms: _48  and  _49
REMARK   20  A    between atoms: _51  and  _53
REMARK   21  A    between atoms: _53  and  _54
REMARK   22  A    between atoms: _53  and  _56
REMARK   23  A    between atoms: _56  and  _57
REMARK   24  A    between atoms: _62  and  _64
REMARK   25  A    between atoms: _64  and  _65
REMARK   26  A    between atoms: _64  and  _67
REMARK   27  A    between atoms: _67  and  _68
REMARK   28  A    between atoms: _73  and  _74
REMARK   29  A    between atoms: _76  and  _78
REMARK   30  A    between atoms: _78  and  _79
REMARK   31  A    between atoms: _78  and  _81
REMARK   32  A    between atoms: _81  and  _82
REMARK   33  A    between atoms: _82  and  _83
REMARK   34  A    between atoms: _86  and  _88
REMARK   35  A    between atoms: _88  and  _89
REMARK   36  A    between atoms: _88  and  _91
REMARK   37  A    between atoms: _91  and  _92
REMARK   38  A    between atoms: _92  and  _93
REMARK   39  A    between atoms: _93  and  _94
REMARK   40  A    between atoms: _94  and  _95
REMARK   41  A    between atoms: _99  and  _101
REMARK   42  A    between atoms: _101  and  _102
REMARK   43  A    between atoms: _101  and  _104
REMARK   44  A    between atoms: _104  and  _105
REMARK   45  A    between atoms: _110  and  _111
REMARK   46  A    between atoms: _113  and  _115
REMARK   47  A    between atoms: _115  and  _116
REMARK   48  A    between atoms: _115  and  _118
REMARK   49  A    between atoms: _118  and  _119
REMARK   50  A    between atoms: _119  and  _120
REMARK   51  A    between atoms: _120  and  _121
REMARK   52  A    between atoms: _130  and  _132
REMARK   53  A    between atoms: _132  and  _133
REMARK   54  A    between atoms: _136  and  _138
REMARK   55  A    between atoms: _138  and  _139
REMARK   56  A    between atoms: _138  and  _141
REMARK   57  A    between atoms: _141  and  _142
REMARK   58  A    between atoms: _142  and  _258
REMARK   59  A    between atoms: _143  and  _145
REMARK   60  A    between atoms: _145  and  _146
REMARK   61  A    between atoms: _145  and  _148
REMARK   62  A    between atoms: _148  and  _149
REMARK   63  A    between atoms: _149  and  _150
REMARK   64  A    between atoms: _153  and  _155
REMARK   65  A    between atoms: _155  and  _156
REMARK   66  A    between atoms: _155  and  _158
REMARK   67  A    between atoms: _158  and  _159
REMARK   68  A    between atoms: _161  and  _163
REMARK   69  A    between atoms: _163  and  _164
REMARK   70  A    between atoms: _163  and  _166
REMARK   71  A    between atoms: _166  and  _167
REMARK   72  A    between atoms: _172  and  _173
REMARK   73  A    between atoms: _175  and  _177
REMARK   74  A    between atoms: _177  and  _178
REMARK   75  A    between atoms: _177  and  _180
REMARK   76  A    between atoms: _180  and  _181
REMARK   77  A    between atoms: _186  and  _188
REMARK   78  A    between atoms: _188  and  _189
REMARK   79  A    between atoms: _188  and  _191
REMARK   80  A    between atoms: _194  and  _196
REMARK   81  A    between atoms: _196  and  _197
REMARK   82  A    between atoms: _196  and  _199
REMARK   83  A    between atoms: _199  and  _200
REMARK   84  A    between atoms: _200  and  _201
REMARK   85  A    between atoms: _201  and  _202
REMARK   86  A    between atoms: _211  and  _213
REMARK   87  A    between atoms: _213  and  _214
REMARK   88  A    between atoms: _213  and  _216
REMARK   89  A    between atoms: _216  and  _217
REMARK   90  A    between atoms: _222  and  _224
REMARK   91  A    between atoms: _224  and  _225
REMARK   92  A    between atoms: _224  and  _227
REMARK   93  A    between atoms: _227  and  _228
REMARK   94  A    between atoms: _231  and  _233
REMARK   95  A    between atoms: _233  and  _234
REMARK   96  A    between atoms: _236  and  _238
REMARK   97  A    between atoms: _238  and  _239
REMARK   98  A    between atoms: _238  and  _241
REMARK   99  A    between atoms: _241  and  _242
REMARK  100  A    between atoms: _252  and  _254
REMARK  101  A    between atoms: _254  and  _255
REMARK  102  A    between atoms: _254  and  _257
REMARK  103  A    between atoms: _257  and  _258
REMARK  104  A    between atoms: _259  and  _261
REMARK  105  A    between atoms: _261  and  _262
REMARK  106  A    between atoms: _261  and  _264
REMARK  107  A    between atoms: _264  and  _265
REMARK  108  A    between atoms: _268  and  _270
REMARK  109  A    between atoms: _270  and  _271
REMARK  110  A    between atoms: _273  and  _275
REMARK  111  A    between atoms: _275  and  _276
REMARK  112  A    between atoms: _275  and  _278
REMARK  113  A    between atoms: _278  and  _279
REMARK  114  A    between atoms: _284  and  _285
REMARK  115  A    between atoms: _287  and  _289
REMARK  116  A    between atoms: _289  and  _290
REMARK  117  A    between atoms: _289  and  _292
REMARK  118  A    between atoms: _292  and  _293
REMARK  119  A    between atoms: _293  and  _294
REMARK  120  A    between atoms: _294  and  _295
REMARK  121  A    between atoms: _304  and  _306
REMARK  122  A    between atoms: _306  and  _307
REMARK  123  A    between atoms: _306  and  _309
REMARK  124  A    between atoms: _309  and  _310
REMARK  125  A    between atoms: _310  and  _311
REMARK  126  A    between atoms: _311  and  _312
REMARK  127  A    between atoms: _312  and  _313
REMARK  128  A    between atoms: _317  and  _319
REMARK  129  A    between atoms: _319  and  _320
REMARK  130  A    between atoms: _322  and  _324
REMARK  131  A    between atoms: _324  and  _325
REMARK  132  A    between atoms: _328  and  _330
REMARK  133  A    between atoms: _330  and  _331
REMARK  134  A    between atoms: _330  and  _333
REMARK  135  A    between atoms: _333  and  _334
REMARK  136  A    between atoms: _339  and  _341
REMARK  137  A    between atoms: _341  and  _342
REMARK  138  A    between atoms: _345  and  _347
REMARK  139  A    between atoms: _347  and  _348
REMARK  140  A    between atoms: _351  and  _352
REMARK  141  A    between atoms: _357  and  _359
REMARK  142  A    between atoms: _359  and  _360
REMARK  143  A    between atoms: _359  and  _362
REMARK  144  A    between atoms: _362  and  _363
REMARK  145  A    between atoms: _366  and  _368
REMARK  146  A    between atoms: _368  and  _369
REMARK  147  A    between atoms: _368  and  _371
REMARK  148  A    between atoms: _371  and  _372
REMARK  149  A    between atoms: _382  and  _384
REMARK  150  A    between atoms: _384  and  _385
REMARK  151  A    between atoms: _384  and  _387
REMARK  152  A    between atoms: _387  and  _388
REMARK  153  A    between atoms: _394  and  _395
REMARK  154  A    between atoms: _400  and  _402
REMARK  155  A    between atoms: _402  and  _403
REMARK  156  A    between atoms: _402  and  _405
REMARK  157  A    between atoms: _405  and  _406
REMARK  158  A    between atoms: _409  and  _411
REMARK  159  A    between atoms: _411  and  _412
REMARK  160  A    between atoms: _411  and  _414
REMARK  161  A    between atoms: _414  and  _415
REMARK  162  A    between atoms: _417  and  _419
REMARK  163  A    between atoms: _419  and  _420
REMARK  164  A    between atoms: _419  and  _422
REMARK  165  A    between atoms: _422  and  _423
REMARK  166  A    between atoms: _428  and  _430
REMARK  167  A    between atoms: _430  and  _431
REMARK  168  A    between atoms: _430  and  _433
REMARK  169  A    between atoms: _436  and  _438
REMARK  170  A    between atoms: _438  and  _439
REMARK  171  A    between atoms: _438  and  _441
REMARK  172  A    between atoms: _441  and  _442
REMARK  173  A    between atoms: _442  and  _443
REMARK  174  A    between atoms: _449  and  _450
REMARK  175  A    between atoms: _455  and  _457
REMARK  176  A    between atoms: _457  and  _458
REMARK  177  A    between atoms: _457  and  _460
REMARK  178  A    between atoms: _460  and  _461
REMARK  179  A    between atoms: _464  and  _466
REMARK  180  A    between atoms: _466  and  _467
REMARK  181  A    between atoms: _466  and  _469
REMARK  182  A    between atoms: _469  and  _470
REMARK  183  A    between atoms: _473  and  _475
REMARK  184  A    between atoms: _475  and  _476
REMARK  185  A    between atoms: _475  and  _478
REMARK  186  A    between atoms: _478  and  _479
REMARK  187  A    between atoms: _481  and  _483
REMARK  188  A    between atoms: _483  and  _484
REMARK  189  A    between atoms: _483  and  _486
REMARK  190  A    between atoms: _486  and  _487
REMARK  191  A    between atoms: _492  and  _493
REMARK  192  A    between atoms: _495  and  _497
REMARK  193  A    between atoms: _497  and  _498
REMARK  194  A    between atoms: _497  and  _500
REMARK  195  A    between atoms: _500  and  _501
REMARK  196  A    between atoms: _506  and  _508
REMARK  197  A    between atoms: _508  and  _509
REMARK  198  A    between atoms: _508  and  _511
REMARK  199  A    between atoms: _511  and  _512
REMARK  200  A    between atoms: _515  and  _517
REMARK  201  A    between atoms: _517  and  _518
REMARK  202  A    between atoms: _517  and  _520
REMARK  203  A    between atoms: _520  and  _521
REMARK  204  A    between atoms: _531  and  _533
REMARK  205  A    between atoms: _533  and  _534
REMARK  206  A    between atoms: _536  and  _538
REMARK  207  A    between atoms: _538  and  _539
REMARK  208  A    between atoms: _538  and  _541
REMARK  209  A    between atoms: _541  and  _542
REMARK  210  A    between atoms: _547  and  _548
REMARK  211  A    between atoms: _550  and  _552
REMARK  212  A    between atoms: _552  and  _553
REMARK  213  A    between atoms: _552  and  _555
REMARK  214  A    between atoms: _555  and  _556
REMARK  215  A    between atoms: _556  and  _557
REMARK  216  A    between atoms: _557  and  _558
REMARK  217  A    between atoms: _567  and  _569
REMARK  218  A    between atoms: _569  and  _570
REMARK  219  A    between atoms: _569  and  _572
REMARK  220  A    between atoms: _572  and  _573
REMARK  221  A    between atoms: _573  and  _574
REMARK  222  A    between atoms: _574  and  _575
REMARK  223  A    between atoms: _575  and  _576
REMARK  224  A    between atoms: _580  and  _582
REMARK  225  A    between atoms: _582  and  _583
REMARK  226  A    between atoms: _585  and  _587
REMARK  227  A    between atoms: _587  and  _588
REMARK  228  A    between atoms: _591  and  _593
REMARK  229  A    between atoms: _593  and  _594
REMARK  230  A    between atoms: _593  and  _596
REMARK  231  A    between atoms: _596  and  _597
REMARK  232  A    between atoms: _602  and  _604
REMARK  233  A    between atoms: _604  and  _605
REMARK  234  A    between atoms: _608  and  _610
REMARK  235  A    between atoms: _610  and  _611
REMARK  236  A    between atoms: _614  and  _615
REMARK  237  A    between atoms: _620  and  _622
REMARK  238  A    between atoms: _622  and  _623
REMARK  239  A    between atoms: _622  and  _625
REMARK  240  A    between atoms: _625  and  _626
REMARK  241  A    between atoms: _629  and  _631
REMARK  242  A    between atoms: _631  and  _632
REMARK  243  A    between atoms: _631  and  _634
REMARK  244  A    between atoms: _634  and  _635
REMARK  245  A    between atoms: _645  and  _647
REMARK  246  A    between atoms: _647  and  _648
REMARK  247  A    between atoms: _647  and  _650
REMARK  248  A    between atoms: _650  and  _651
REMARK  249  A    between atoms: _657  and  _658
REMARK  250  A    between atoms: _663  and  _665
REMARK  251  A    between atoms: _665  and  _666
REMARK  252  A    between atoms: _665  and  _668
REMARK  253  A    between atoms: _668  and  _669
REMARK  254  A    between atoms: _672  and  _674
REMARK  255  A    between atoms: _674  and  _675
REMARK  256  A    between atoms: _674  and  _677
REMARK  257  A    between atoms: _677  and  _678
REMARK  258  A    between atoms: _678  and  _679
REMARK  259  A    between atoms: _682  and  _684
REMARK  260  A    between atoms: _684  and  _685
REMARK  261  A    between atoms: _684  and  _687
REMARK  262  A    between atoms: _687  and  _688
REMARK  263  A    between atoms: _688  and  _689
REMARK  264  A    between atoms: _689  and  _690
REMARK  265  A    between atoms: _690  and  _691
REMARK  266  A    between atoms: _695  and  _697
REMARK  267  A    between atoms: _697  and  _698
REMARK  268  A    between atoms: _700  and  _702
REMARK  269  A    between atoms: _702  and  _703
REMARK  270  A    between atoms: _702  and  _705
REMARK  271  A    between atoms: _705  and  _706
REMARK  272  A    between atoms: _711  and  _713
REMARK  273  A    between atoms: _713  and  _714
REMARK  274  A    between atoms: _713  and  _716
REMARK  275  A    between atoms: _716  and  _717
REMARK  276  A    between atoms: _717  and  _718
REMARK  277  A    between atoms: _718  and  _719
REMARK  278  A    between atoms: _728  and  _730
REMARK  279  A    between atoms: _730  and  _731
REMARK  280  A    between atoms: _730  and  _733
REMARK  281  A    between atoms: _733  and  _734
REMARK  282  A    between atoms: _737  and  _739
REMARK  283  A    between atoms: _739  and  _740
REMARK  284  A    between atoms: _739  and  _742
REMARK  285  A    between atoms: _745  and  _747
REMARK  286  A    between atoms: _747  and  _748
REMARK  287  A    between atoms: _747  and  _750
REMARK  288  A    between atoms: _750  and  _751
REMARK  289  A    between atoms: _751  and  _752
REMARK  290  A    between atoms: _758  and  _759
REMARK  291  A    between atoms: _764  and  _766
REMARK  292  A    between atoms: _766  and  _767
REMARK  293  A    between atoms: _766  and  _769
REMARK  294  A    between atoms: _769  and  _770
REMARK  295  A    between atoms: _773  and  _775
REMARK  296  A    between atoms: _775  and  _776
REMARK  297  A    between atoms: _775  and  _778
REMARK  298  A    between atoms: _778  and  _779
REMARK  299  A    between atoms: _782  and  _784
REMARK  300  A    between atoms: _784  and  _785
REMARK  301  A    between atoms: _784  and  _787
REMARK  302  A    between atoms: _787  and  _788
REMARK  303  A    between atoms: _790  and  _792
REMARK  304  A    between atoms: _792  and  _793
REMARK  305  A    between atoms: _792  and  _795
REMARK  306  A    between atoms: _795  and  _796
REMARK  307  A    between atoms: _796  and  _797
REMARK  308  A    between atoms: _797  and  _798
REMARK  309  A    between atoms: _807  and  _809
REMARK  310  A    between atoms: _809  and  _810
REMARK                            x       y       z     vdW  Elec       q    Type
REMARK                         _______ _______ _______ _____ _____    ______ ____
ROOT
ATOM      1  CB  ARG A   1     -43.238 -23.165 -29.610  0.00  0.00    +0.030 C 
ENDROOT
BRANCH   1   2
ATOM      2  CA  ARG A   1     -43.809 -23.474 -28.222  0.00  0.00    +0.145 C 
BRANCH   2   3
ATOM      3  C   ARG A   1     -42.864 -24.363 -27.416  0.00  0.00    +0.238 C 
ATOM      4  N   ALA A   2     -43.385 -25.463 -26.857  0.00  0.00    -0.298 N 
ATOM      5  H   ALA A   2     -44.392 -25.665 -27.020  0.00  0.00    +0.150 HD
ATOM      6  O   ARG A   1     -41.693 -24.038 -27.284  0.00  0.00    -0.274 OA
BRANCH   4   7
ATOM      7  CA  ALA A   2     -42.612 -26.406 -26.023  0.00  0.00    +0.137 C 
ATOM      8  CB  ALA A   2     -43.560 -27.444 -25.394  0.00  0.00    +0.030 C 
BRANCH   7   9
ATOM      9  C   ALA A   2     -41.498 -27.123 -26.770  0.00  0.00    +0.227 C 
ATOM     10  O   ALA A   2     -41.540 -27.248 -27.984  0.00  0.00    -0.286 OA
ENDBRANCH   7   9
ENDBRANCH   4   7
ENDBRANCH   2   3
BRANCH   2  11
ATOM     11  N   ARG A   1     -43.933 -22.257 -27.431  0.00  0.00    -0.238 NA
ATOM     12  H   ARG A   1     -43.172 -21.998 -26.771  0.00  0.00    +0.142 HD
ENDBRANCH   2  11
ENDBRANCH   1   2
BRANCH   1  13
ATOM     13  CG  ARG A   1     -43.436 -24.276 -30.615  0.00  0.00    +0.045 C 
BRANCH  13  14
ATOM     14  CD  ARG A   1     -43.404 -23.760 -32.038  0.00  0.00    +0.174 C 
BRANCH  14  15
ATOM     15  NE  ARG A   1     -43.308 -24.891 -32.950  0.00  0.00    -0.265 N 
ATOM     16  HE  ARG A   1     -43.872 -25.738 -32.733  0.00  0.00    +0.259 HD
ATOM     17  CZ  ARG A   1     -42.549 -24.914 -34.040  0.00  0.00    +0.342 C 
ATOM     18  NH2 ARG A   1     -41.817 -23.857 -34.369  0.00  0.00    -0.292 N 
ATOM     19 HH21 ARG A   1     -41.836 -23.005 -33.772  0.00  0.00    +0.255 HD
ATOM     20 HH22 ARG A   1     -41.225 -23.880 -35.223  0.00  0.00    +0.255 HD
ATOM     21  NH1 ARG A   1     -42.511 -26.005 -34.791  0.00  0.00    -0.292 N 
ATOM     22 HH11 ARG A   1     -43.074 -26.838 -34.526  0.00  0.00    +0.255 HD
ATOM     23 HH12 ARG A   1     -41.918 -26.028 -35.645  0.00  0.00    +0.255 HD
ENDBRANCH  14  15
ENDBRANCH  13  14
ENDBRANCH   1  13
TORSDOF 8
REMARK  Name = ../refined-set-2016/3rt4/3rt4_pocket.pdb
REMARK  310 active torsions:
REMARK  status: ('A' for Active; 'I' for Inactive)
REMARK    1  A    between atoms: _1  and  _3
REMARK    2  A    between atoms: _3  and  _4
REMARK    3  A    between atoms: _3  and  _6
REMARK    4  A    between atoms: _6  and  _7
REMARK    5  A    between atoms: _7  and  _8
REMARK    6  A    between atoms: _8  and  _9
REMARK    7  A    between atoms: _18  and  _20
REMARK    8  A    between atoms: _20  and  _21
REMARK    9  A    between atoms: _20  and  _23
REMARK   10  A    between atoms: _26  and  _28
REMARK   11  A    between atoms: _28  and  _29
REMARK   12  A    between atoms: _28  and  _31
REMARK   13  A    between atoms: _31  and  _32
REMARK   14  A    between atoms: _32  and  _33
REMARK   15  A    between atoms: _33  and  _34
REMARK   16  A    between atoms: _43  and  _45
REMARK   17  A    between atoms: _45  and  _46
REMARK   18  A    between atoms: _45  and  _48
REMARK   19  A    between atoms: _48  and  _49
REMARK   20  A    between atoms: _51  and  _53
REMARK   21  A    between atoms: _53  and  _54
REMARK   22  A    between atoms: _53  and  _56
REMARK   23  A    between atoms: _56  and  _57
REMARK   24  A    between atoms: _62  and  _64
REMARK   25  A    between atoms: _64  and  _65
REMARK   26  A    between atoms: _64  and  _67
REMARK   27  A    between atoms: _67  and  _68
REMARK   28  A    between atoms: _73  and  _74
REMARK   29  A    between atoms: _76  and  _78
REMARK   30  A    between atoms: _78  and  _79
REMARK   31  A    between atoms: _78  and  _81
REMARK   32  A    between atoms: _81  and  _82
REMARK   33  A    between atoms: _82  and  _83
REMARK   34  A    between atoms: _86  and  _88
REMARK   35  A    between atoms: _88  and  _89
REMARK   36  A    between atoms: _88  and  _91
REMARK   37  A    between atoms: _91  and  _92
REMARK   38  A    between atoms: _92  and  _93
REMARK   39  A    between atoms: _93  and  _94
REMARK   40  A    between atoms: _94  and  _95
REMARK   41  A    between atoms: _99  and  _101
REMARK   42  A    between atoms: _101  and  _102
REMARK   43  A    between atoms: _101  and  _104
REMARK   44  A    between atoms: _104  and  _105
REMARK   45  A    between atoms: _110  and  _111
REMARK   46  A    between atoms: _113  and  _115
REMARK   47  A    between atoms: _115  and  _116
REMARK   48  A    between atoms: _115  and  _118
REMARK   49  A    between atoms: _118  and  _119
REMARK   50  A    between atoms: _119  and  _120
REMARK   51  A    between atoms: _120  and  _121
REMARK   52  A    between atoms: _130  and  _132
REMARK   53  A    between atoms: _132  and  _133
REMARK   54  A    between atoms: _136  and  _138
REMARK   55  A    between atoms: _138  and  _139
REMARK   56  A    between atoms: _138  and  _141
REMARK   57  A    between atoms: _141  and  _142
REMARK   58  A    between atoms: _142  and  _258
REMARK   59  A    between atoms: _143  and  _145
REMARK   60  A    between atoms: _145  and  _146
REMARK   61  A    between atoms: _145  and  _148
REMARK   62  A    between atoms: _148  and  _149
REMARK   63  A    between atoms: _149  and  _150
REMARK   64  A    between atoms: _153  and  _155
REMARK   65  A    between atoms: _155  and  _156
REMARK   66  A    between atoms: _155  and  _158
REMARK   67  A    between atoms: _158  and  _159
REMARK   68  A    between atoms: _161  and  _163
REMARK   69  A    between atoms: _163  and  _164
REMARK   70  A    between atoms: _163  and  _166
REMARK   71  A    between atoms: _166  and  _167
REMARK   72  A    between atoms: _172  and  _173
REMARK   73  A    between atoms: _175  and  _177
REMARK   74  A    between atoms: _177  and  _178
REMARK   75  A    between atoms: _177  and  _180
REMARK   76  A    between atoms: _180  and  _181
REMARK   77  A    between atoms: _186  and  _188
REMARK   78  A    between atoms: _188  and  _189
REMARK   79  A    between atoms: _188  and  _191
REMARK   80  A    between atoms: _194  and  _196
REMARK   81  A    between atoms: _196  and  _197
REMARK   82  A    between atoms: _196  and  _199
REMARK   83  A    between atoms: _199  and  _200
REMARK   84  A    between atoms: _200  and  _201
REMARK   85  A    between atoms: _201  and  _202
REMARK   86  A    between atoms: _211  and  _213
REMARK   87  A    between atoms: _213  and  _214
REMARK   88  A    between atoms: _213  and  _216
REMARK   89  A    between atoms: _216  and  _217
REMARK   90  A    between atoms: _222  and  _224
REMARK   91  A    between atoms: _224  and  _225
REMARK   92  A    between atoms: _224  and  _227
REMARK   93  A    between atoms: _227  and  _228
REMARK   94  A    between atoms: _231  and  _233
REMARK   95  A    between atoms: _233  and  _234
REMARK   96  A    between atoms: _236  and  _238
REMARK   97  A    between atoms: _238  and  _239
REMARK   98  A    between atoms: _238  and  _241
REMARK   99  A    between atoms: _241  and  _242
REMARK  100  A    between atoms: _252  and  _254
REMARK  101  A    between atoms: _254  and  _255
REMARK  102  A    between atoms: _254  and  _257
REMARK  103  A    between atoms: _257  and  _258
REMARK  104  A    between atoms: _259  and  _261
REMARK  105  A    between atoms: _261  and  _262
REMARK  106  A    between atoms: _261  and  _264
REMARK  107  A    between atoms: _264  and  _265
REMARK  108  A    between atoms: _268  and  _270
REMARK  109  A    between atoms: _270  and  _271
REMARK  110  A    between atoms: _273  and  _275
REMARK  111  A    between atoms: _275  and  _276
REMARK  112  A    between atoms: _275  and  _278
REMARK  113  A    between atoms: _278  and  _279
REMARK  114  A    between atoms: _284  and  _285
REMARK  115  A    between atoms: _287  and  _289
REMARK  116  A    between atoms: _289  and  _290
REMARK  117  A    between atoms: _289  and  _292
REMARK  118  A    between atoms: _292  and  _293
REMARK  119  A    between atoms: _293  and  _294
REMARK  120  A    between atoms: _294  and  _295
REMARK  121  A    between atoms: _304  and  _306
REMARK  122  A    between atoms: _306  and  _307
REMARK  123  A    between atoms: _306  and  _309
REMARK  124  A    between atoms: _309  and  _310
REMARK  125  A    between atoms: _310  and  _311
REMARK  126  A    between atoms: _311  and  _312
REMARK  127  A    between atoms: _312  and  _313
REMARK  128  A    between atoms: _317  and  _319
REMARK  129  A    between atoms: _319  and  _320
REMARK  130  A    between atoms: _322  and  _324
REMARK  131  A    between atoms: _324  and  _325
REMARK  132  A    between atoms: _328  and  _330
REMARK  133  A    between atoms: _330  and  _331
REMARK  134  A    between atoms: _330  and  _333
REMARK  135  A    between atoms: _333  and  _334
REMARK  136  A    between atoms: _339  and  _341
REMARK  137  A    between atoms: _341  and  _342
REMARK  138  A    between atoms: _345  and  _347
REMARK  139  A    between atoms: _347  and  _348
REMARK  140  A    between atoms: _351  and  _352
REMARK  141  A    between atoms: _357  and  _359
REMARK  142  A    between atoms: _359  and  _360
REMARK  143  A    between atoms: _359  and  _362
REMARK  144  A    between atoms: _362  and  _363
REMARK  145  A    between atoms: _366  and  _368
REMARK  146  A    between atoms: _368  and  _369
REMARK  147  A    between atoms: _368  and  _371
REMARK  148  A    between atoms: _371  and  _372
REMARK  149  A    between atoms: _382  and  _384
REMARK  150  A    between atoms: _384  and  _385
REMARK  151  A    between atoms: _384  and  _387
REMARK  152  A    between atoms: _387  and  _388
REMARK  153  A    between atoms: _394  and  _395
REMARK  154  A    between atoms: _400  and  _402
REMARK  155  A    between atoms: _402  and  _403
REMARK  156  A    between atoms: _402  and  _405
REMARK  157  A    between atoms: _405  and  _406
REMARK  158  A    between atoms: _409  and  _411
REMARK  159  A    between atoms: _411  and  _412
REMARK  160  A    between atoms: _411  and  _414
REMARK  161  A    between atoms: _414  and  _415
REMARK  162  A    between atoms: _417  and  _419
REMARK  163  A    between atoms: _419  and  _420
REMARK  164  A    between atoms: _419  and  _422
REMARK  165  A    between atoms: _422  and  _423
REMARK  166  A    between atoms: _428  and  _430
REMARK  167  A    between atoms: _430  and  _431
REMARK  168  A    between atoms: _430  and  _433
REMARK  169  A    between atoms: _436  and  _438
REMARK  170  A    between atoms: _438  and  _439
REMARK  171  A    between atoms: _438  and  _441
REMARK  172  A    between atoms: _441  and  _442
REMARK  173  A    between atoms: _442  and  _443
REMARK  174  A    between atoms: _449  and  _450
REMARK  175  A    between atoms: _455  and  _457
REMARK  176  A    between atoms: _457  and  _458
REMARK  177  A    between atoms: _457  and  _460
REMARK  178  A    between atoms: _460  and  _461
REMARK  179  A    between atoms: _464  and  _466
REMARK  180  A    between atoms: _466  and  _467
REMARK  181  A    between atoms: _466  and  _469
REMARK  182  A    between atoms: _469  and  _470
REMARK  183  A    between atoms: _473  and  _475
REMARK  184  A    between atoms: _475  and  _476
REMARK  185  A    between atoms: _475  and  _478
REMARK  186  A    between atoms: _478  and  _479
REMARK  187  A    between atoms: _481  and  _483
REMARK  188  A    between atoms: _483  and  _484
REMARK  189  A    between atoms: _483  and  _486
REMARK  190  A    between atoms: _486  and  _487
REMARK  191  A    between atoms: _492  and  _493
REMARK  192  A    between atoms: _495  and  _497
REMARK  193  A    between atoms: _497  and  _498
REMARK  194  A    between atoms: _497  and  _500
REMARK  195  A    between atoms: _500  and  _501
REMARK  196  A    between atoms: _506  and  _508
REMARK  197  A    between atoms: _508  and  _509
REMARK  198  A    between atoms: _508  and  _511
REMARK  199  A    between atoms: _511  and  _512
REMARK  200  A    between atoms: _515  and  _517
REMARK  201  A    between atoms: _517  and  _518
REMARK  202  A    between atoms: _517  and  _520
REMARK  203  A    between atoms: _520  and  _521
REMARK  204  A    between atoms: _531  and  _533
REMARK  205  A    between atoms: _533  and  _534
REMARK  206  A    between atoms: _536  and  _538
REMARK  207  A    between atoms: _538  and  _539
REMARK  208  A    between atoms: _538  and  _541
REMARK  209  A    between atoms: _541  and  _542
REMARK  210  A    between atoms: _547  and  _548
REMARK  211  A    between atoms: _550  and  _552
REMARK  212  A    between atoms: _552  and  _553
REMARK  213  A    between atoms: _552  and  _555
REMARK  214  A    between atoms: _555  and  _556
REMARK  215  A    between atoms: _556  and  _557
REMARK  216  A    between atoms: _557  and  _558
REMARK  217  A    between atoms: _567  and  _569
REMARK  218  A    between atoms: _569  and  _570
REMARK  219  A    between atoms: _569  and  _572
REMARK  220  A    between atoms: _572  and  _573
REMARK  221  A    between atoms: _573  and  _574
REMARK  222  A    between atoms: _574  and  _575
REMARK  223  A    between atoms: _575  and  _576
REMARK  224  A    between atoms: _580  and  _582
REMARK  225  A    between atoms: _582  and  _583
REMARK  226  A    between atoms: _585  and  _587
REMARK  227  A    between atoms: _587  and  _588
REMARK  228  A    between atoms: _591  and  _593
REMARK  229  A    between atoms: _593  and  _594
REMARK  230  A    between atoms: _593  and  _596
REMARK  231  A    between atoms: _596  and  _597
REMARK  232  A    between atoms: _602  and  _604
REMARK  233  A    between atoms: _604  and  _605
REMARK  234  A    between atoms: _608  and  _610
REMARK  235  A    between atoms: _610  and  _611
REMARK  236  A    between atoms: _614  and  _615
REMARK  237  A    between atoms: _620  and  _622
REMARK  238  A    between atoms: _622  and  _623
REMARK  239  A    between atoms: _622  and  _625
REMARK  240  A    between atoms: _625  and  _626
REMARK  241  A    between atoms: _629  and  _631
REMARK  242  A    between atoms: _631  and  _632
REMARK  243  A    between atoms: _631  and  _634
REMARK  244  A    between atoms: _634  and  _635
REMARK  245  A    between atoms: _645  and  _647
REMARK  246  A    between atoms: _647  and  _648
REMARK  247  A    between atoms: _647  and  _650
REMARK  248  A    between atoms: _650  and  _651
REMARK  249  A    between atoms: _657  and  _658
REMARK  250  A    between atoms: _663  and  _665
REMARK  251  A    between atoms: _665  and  _666
REMARK  252  A    between atoms: _665  and  _668
REMARK  253  A    between atoms: _668  and  _669
REMARK  254  A    between atoms: _672  and  _674
REMARK  255  A    between atoms: _674  and  _675
REMARK  256  A    between atoms: _674  and  _677
REMARK  257  A    between atoms: _677  and  _678
REMARK  258  A    between atoms: _678  and  _679
REMARK  259  A    between atoms: _682  and  _684
REMARK  260  A    between atoms: _684  and  _685
REMARK  261  A    between atoms: _684  and  _687
REMARK  262  A    between atoms: _687  and  _688
REMARK  263  A    between atoms: _688  and  _689
REMARK  264  A    between atoms: _689  and  _690
REMARK  265  A    between atoms: _690  and  _691
REMARK  266  A    between atoms: _695  and  _697
REMARK  267  A    between atoms: _697  and  _698
REMARK  268  A    between atoms: _700  and  _702
REMARK  269  A    between atoms: _702  and  _703
REMARK  270  A    between atoms: _702  and  _705
REMARK  271  A    between atoms: _705  and  _706
REMARK  272  A    between atoms: _711  and  _713
REMARK  273  A    between atoms: _713  and  _714
REMARK  274  A    between atoms: _713  and  _716
REMARK  275  A    between atoms: _716  and  _717
REMARK  276  A    between atoms: _717  and  _718
REMARK  277  A    between atoms: _718  and  _719
REMARK  278  A    between atoms: _728  and  _730
REMARK  279  A    between atoms: _730  and  _731
REMARK  280  A    between atoms: _730  and  _733
REMARK  281  A    between atoms: _733  and  _734
REMARK  282  A    between atoms: _737  and  _739
REMARK  283  A    between atoms: _739  and  _740
REMARK  284  A    between atoms: _739  and  _742
REMARK  285  A    between atoms: _745  and  _747
REMARK  286  A    between atoms: _747  and  _748
REMARK  287  A    between atoms: _747  and  _750
REMARK  288  A    between atoms: _750  and  _751
REMARK  289  A    between atoms: _751  and  _752
REMARK  290  A    between atoms: _758  and  _759
REMARK  291  A    between atoms: _764  and  _766
REMARK  292  A    between atoms: _766  and  _767
REMARK  293  A    between atoms: _766  and  _769
REMARK  294  A    between atoms: _769  and  _770
REMARK  295  A    between atoms: _773  and  _775
REMARK  296  A    between atoms: _775  and  _776
REMARK  297  A    between atoms: _775  and  _778
REMARK  298  A    between atoms: _778  and  _779
REMARK  299  A    between atoms: _782  and  _784
REMARK  300  A    between atoms: _784  and  _785
REMARK  301  A    between atoms: _784  and  _787
REMARK  302  A    between atoms: _787  and  _788
REMARK  303  A    between atoms: _790  and  _792
REMARK  304  A    between atoms: _792  and  _793
REMARK  305  A    between atoms: _792  and  _795
REMARK  306  A    between atoms: _795  and  _796
REMARK  307  A    between atoms: _796  and  _797
REMARK  308  A    between atoms: _797  and  _798
REMARK  309  A    between atoms: _807  and  _809
REMARK  310  A    between atoms: _809  and  _810
REMARK                            x       y       z     vdW  Elec       q    Type
REMARK                         _______ _______ _______ _____ _____    ______ ____
ROOT
ATOM      1  O   HOH     1     -35.374 -33.405 -31.540  0.00  0.00    +0.000 OA
ENDROOT
TORSDOF 0
REMARK  Name = ../refined-set-2016/3rt4/3rt4_pocket.pdb
REMARK  310 active torsions:
REMARK  status: ('A' for Active; 'I' for Inactive)
REMARK    1  A    between atoms: _1  and  _3
REMARK    2  A    between atoms: _3  and  _4
REMARK    3  A    between atoms: _3  and  _6
REMARK    4  A    between atoms: _6  and  _7
REMARK    5  A    between atoms: _7  and  _8
REMARK    6  A    between atoms: _8  and  _9
REMARK    7  A    between atoms: _18  and  _20
REMARK    8  A    between atoms: _20  and  _21
REMARK    9  A    between atoms: _20  and  _23
REMARK   10  A    between atoms: _26  and  _28
REMARK   11  A    between atoms: _28  and  _29
REMARK   12  A    between atoms: _28  and  _31
REMARK   13  A    between atoms: _31  and  _32
REMARK   14  A    between atoms: _32  and  _33
REMARK   15  A    between atoms: _33  and  _34
REMARK   16  A    between atoms: _43  and  _45
REMARK   17  A    between atoms: _45  and  _46
REMARK   18  A    between atoms: _45  and  _48
REMARK   19  A    between atoms: _48  and  _49
REMARK   20  A    between atoms: _51  and  _53
REMARK   21  A    between atoms: _53  and  _54
REMARK   22  A    between atoms: _53  and  _56
REMARK   23  A    between atoms: _56  and  _57
REMARK   24  A    between atoms: _62  and  _64
REMARK   25  A    between atoms: _64  and  _65
REMARK   26  A    between atoms: _64  and  _67
REMARK   27  A    between atoms: _67  and  _68
REMARK   28  A    between atoms: _73  and  _74
REMARK   29  A    between atoms: _76  and  _78
REMARK   30  A    between atoms: _78  and  _79
REMARK   31  A    between atoms: _78  and  _81
REMARK   32  A    between atoms: _81  and  _82
REMARK   33  A    between atoms: _82  and  _83
REMARK   34  A    between atoms: _86  and  _88
REMARK   35  A    between atoms: _88  and  _89
REMARK   36  A    between atoms: _88  and  _91
REMARK   37  A    between atoms: _91  and  _92
REMARK   38  A    between atoms: _92  and  _93
REMARK   39  A    between atoms: _93  and  _94
REMARK   40  A    between atoms: _94  and  _95
REMARK   41  A    between atoms: _99  and  _101
REMARK   42  A    between atoms: _101  and  _102
REMARK   43  A    between atoms: _101  and  _104
REMARK   44  A    between atoms: _104  and  _105
REMARK   45  A    between atoms: _110  and  _111
REMARK   46  A    between atoms: _113  and  _115
REMARK   47  A    between atoms: _115  and  _116
REMARK   48  A    between atoms: _115  and  _118
REMARK   49  A    between atoms: _118  and  _119
REMARK   50  A    between atoms: _119  and  _120
REMARK   51  A    between atoms: _120  and  _121
REMARK   52  A    between atoms: _130  and  _132
REMARK   53  A    between atoms: _132  and  _133
REMARK   54  A    between atoms: _136  and  _138
REMARK   55  A    between atoms: _138  and  _139
REMARK   56  A    between atoms: _138  and  _141
REMARK   57  A    between atoms: _141  and  _142
REMARK   58  A    between atoms: _142  and  _258
REMARK   59  A    between atoms: _143  and  _145
REMARK   60  A    between atoms: _145  and  _146
REMARK   61  A    between atoms: _145  and  _148
REMARK   62  A    between atoms: _148  and  _149
REMARK   63  A    between atoms: _149  and  _150
REMARK   64  A    between atoms: _153  and  _155
REMARK   65  A    between atoms: _155  and  _156
REMARK   66  A    between atoms: _155  and  _158
REMARK   67  A    between atoms: _158  and  _159
REMARK   68  A    between atoms: _161  and  _163
REMARK   69  A    between atoms: _163  and  _164
REMARK   70  A    between atoms: _163  and  _166
REMARK   71  A    between atoms: _166  and  _167
REMARK   72  A    between atoms: _172  and  _173
REMARK   73  A    between atoms: _175  and  _177
REMARK   74  A    between atoms: _177  and  _178
REMARK   75  A    between atoms: _177  and  _180
REMARK   76  A    between atoms: _180  and  _181
REMARK   77  A    between atoms: _186  and  _188
REMARK   78  A    between atoms: _188  and  _189
REMARK   79  A    between atoms: _188  and  _191
REMARK   80  A    between atoms: _194  and  _196
REMARK   81  A    between atoms: _196  and  _197
REMARK   82  A    between atoms: _196  and  _199
REMARK   83  A    between atoms: _199  and  _200
REMARK   84  A    between atoms: _200  and  _201
REMARK   85  A    between atoms: _201  and  _202
REMARK   86  A    between atoms: _211  and  _213
REMARK   87  A    between atoms: _213  and  _214
REMARK   88  A    between atoms: _213  and  _216
REMARK   89  A    between atoms: _216  and  _217
REMARK   90  A    between atoms: _222  and  _224
REMARK   91  A    between atoms: _224  and  _225
REMARK   92  A    between atoms: _224  and  _227
REMARK   93  A    between atoms: _227  and  _228
REMARK   94  A    between atoms: _231  and  _233
REMARK   95  A    between atoms: _233  and  _234
REMARK   96  A    between atoms: _236  and  _238
REMARK   97  A    between atoms: _238  and  _239
REMARK   98  A    between atoms: _238  and  _241
REMARK   99  A    between atoms: _241  and  _242
REMARK  100  A    between atoms: _252  and  _254
REMARK  101  A    between atoms: _254  and  _255
REMARK  102  A    between atoms: _254  and  _257
REMARK  103  A    between atoms: _257  and  _258
REMARK  104  A    between atoms: _259  and  _261
REMARK  105  A    between atoms: _261  and  _262
REMARK  106  A    between atoms: _261  and  _264
REMARK  107  A    between atoms: _264  and  _265
REMARK  108  A    between atoms: _268  and  _270
REMARK  109  A    between atoms: _270  and  _271
REMARK  110  A    between atoms: _273  and  _275
REMARK  111  A    between atoms: _275  and  _276
REMARK  112  A    between atoms: _275  and  _278
REMARK  113  A    between atoms: _278  and  _279
REMARK  114  A    between atoms: _284  and  _285
REMARK  115  A    between atoms: _287  and  _289
REMARK  116  A    between atoms: _289  and  _290
REMARK  117  A    between atoms: _289  and  _292
REMARK  118  A    between atoms: _292  and  _293
REMARK  119  A    between atoms: _293  and  _294
REMARK  120  A    between atoms: _294  and  _295
REMARK  121  A    between atoms: _304  and  _306
REMARK  122  A    between atoms: _306  and  _307
REMARK  123  A    between atoms: _306  and  _309
REMARK  124  A    between atoms: _309  and  _310
REMARK  125  A    between atoms: _310  and  _311
REMARK  126  A    between atoms: _311  and  _312
REMARK  127  A    between atoms: _312  and  _313
REMARK  128  A    between atoms: _317  and  _319
REMARK  129  A    between atoms: _319  and  _320
REMARK  130  A    between atoms: _322  and  _324
REMARK  131  A    between atoms: _324  and  _325
REMARK  132  A    between atoms: _328  and  _330
REMARK  133  A    between atoms: _330  and  _331
REMARK  134  A    between atoms: _330  and  _333
REMARK  135  A    between atoms: _333  and  _334
REMARK  136  A    between atoms: _339  and  _341
REMARK  137  A    between atoms: _341  and  _342
REMARK  138  A    between atoms: _345  and  _347
REMARK  139  A    between atoms: _347  and  _348
REMARK  140  A    between atoms: _351  and  _352
REMARK  141  A    between atoms: _357  and  _359
REMARK  142  A    between atoms: _359  and  _360
REMARK  143  A    between atoms: _359  and  _362
REMARK  144  A    between atoms: _362  and  _363
REMARK  145  A    between atoms: _366  and  _368
REMARK  146  A    between atoms: _368  and  _369
REMARK  147  A    between atoms: _368  and  _371
REMARK  148  A    between atoms: _371  and  _372
REMARK  149  A    between atoms: _382  and  _384
REMARK  150  A    between atoms: _384  and  _385
REMARK  151  A    between atoms: _384  and  _387
REMARK  152  A    between atoms: _387  and  _388
REMARK  153  A    between atoms: _394  and  _395
REMARK  154  A    between atoms: _400  and  _402
REMARK  155  A    between atoms: _402  and  _403
REMARK  156  A    between atoms: _402  and  _405
REMARK  157  A    between atoms: _405  and  _406
REMARK  158  A    between atoms: _409  and  _411
REMARK  159  A    between atoms: _411  and  _412
REMARK  160  A    between atoms: _411  and  _414
REMARK  161  A    between atoms: _414  and  _415
REMARK  162  A    between atoms: _417  and  _419
REMARK  163  A    between atoms: _419  and  _420
REMARK  164  A    between atoms: _419  and  _422
REMARK  165  A    between atoms: _422  and  _423
REMARK  166  A    between atoms: _428  and  _430
REMARK  167  A    between atoms: _430  and  _431
REMARK  168  A    between atoms: _430  and  _433
REMARK  169  A    between atoms: _436  and  _438
REMARK  170  A    between atoms: _438  and  _439
REMARK  171  A    between atoms: _438  and  _441
REMARK  172  A    between atoms: _441  and  _442
REMARK  173  A    between atoms: _442  and  _443
REMARK  174  A    between atoms: _449  and  _450
REMARK  175  A    between atoms: _455  and  _457
REMARK  176  A    between atoms: _457  and  _458
REMARK  177  A    between atoms: _457  and  _460
REMARK  178  A    between atoms: _460  and  _461
REMARK  179  A    between atoms: _464  and  _466
REMARK  180  A    between atoms: _466  and  _467
REMARK  181  A    between atoms: _466  and  _469
REMARK  182  A    between atoms: _469  and  _470
REMARK  183  A    between atoms: _473  and  _475
REMARK  184  A    between atoms: _475  and  _476
REMARK  185  A    between atoms: _475  and  _478
REMARK  186  A    between atoms: _478  and  _479
REMARK  187  A    between atoms: _481  and  _483
REMARK  188  A    between atoms: _483  and  _484
REMARK  189  A    between atoms: _483  and  _486
REMARK  190  A    between atoms: _486  and  _487
REMARK  191  A    between atoms: _492  and  _493
REMARK  192  A    between atoms: _495  and  _497
REMARK  193  A    between atoms: _497  and  _498
REMARK  194  A    between atoms: _497  and  _500
REMARK  195  A    between atoms: _500  and  _501
REMARK  196  A    between atoms: _506  and  _508
REMARK  197  A    between atoms: _508  and  _509
REMARK  198  A    between atoms: _508  and  _511
REMARK  199  A    between atoms: _511  and  _512
REMARK  200  A    between atoms: _515  and  _517
REMARK  201  A    between atoms: _517  and  _518
REMARK  202  A    between atoms: _517  and  _520
REMARK  203  A    between atoms: _520  and  _521
REMARK  204  A    between atoms: _531  and  _533
REMARK  205  A    between atoms: _533  and  _534
REMARK  206  A    between atoms: _536  and  _538
REMARK  207  A    between atoms: _538  and  _539
REMARK  208  A    between atoms: _538  and  _541
REMARK  209  A    between atoms: _541  and  _542
REMARK  210  A    between atoms: _547  and  _548
REMARK  211  A    between atoms: _550  and  _552
REMARK  212  A    between atoms: _552  and  _553
REMARK  213  A    between atoms: _552  and  _555
REMARK  214  A    between atoms: _555  and  _556
REMARK  215  A    between atoms: _556  and  _557
REMARK  216  A    between atoms: _557  and  _558
REMARK  217  A    between atoms: _567  and  _569
REMARK  218  A    between atoms: _569  and  _570
REMARK  219  A    between atoms: _569  and  _572
REMARK  220  A    between atoms: _572  and  _573
REMARK  221  A    between atoms: _573  and  _574
REMARK  222  A    between atoms: _574  and  _575
REMARK  223  A    between atoms: _575  and  _576
REMARK  224  A    between atoms: _580  and  _582
REMARK  225  A    between atoms: _582  and  _583
REMARK  226  A    between atoms: _585  and  _587
REMARK  227  A    between atoms: _587  and  _588
REMARK  228  A    between atoms: _591  and  _593
REMARK  229  A    between atoms: _593  and  _594
REMARK  230  A    between atoms: _593  and  _596
REMARK  231  A    between atoms: _596  and  _597
REMARK  232  A    between atoms: _602  and  _604
REMARK  233  A    between atoms: _604  and  _605
REMARK  234  A    between atoms: _608  and  _610
REMARK  235  A    between atoms: _610  and  _611
REMARK  236  A    between atoms: _614  and  _615
REMARK  237  A    between atoms: _620  and  _622
REMARK  238  A    between atoms: _622  and  _623
REMARK  239  A    between atoms: _622  and  _625
REMARK  240  A    between atoms: _625  and  _626
REMARK  241  A    between atoms: _629  and  _631
REMARK  242  A    between atoms: _631  and  _632
REMARK  243  A    between atoms: _631  and  _634
REMARK  244  A    between atoms: _634  and  _635
REMARK  245  A    between atoms: _645  and  _647
REMARK  246  A    between atoms: _647  and  _648
REMARK  247  A    between atoms: _647  and  _650
REMARK  248  A    between atoms: _650  and  _651
REMARK  249  A    between atoms: _657  and  _658
REMARK  250  A    between atoms: _663  and  _665
REMARK  251  A    between atoms: _665  and  _666
REMARK  252  A    between atoms: _665  and  _668
REMARK  253  A    between atoms: _668  and  _669
REMARK  254  A    between atoms: _672  and  _674
REMARK  255  A    between atoms: _674  and  _675
REMARK  256  A    between atoms: _674  and  _677
REMARK  257  A    between atoms: _677  and  _678
REMARK  258  A    between atoms: _678  and  _679
REMARK  259  A    between atoms: _682  and  _684
REMARK  260  A    between atoms: _684  and  _685
REMARK  261  A    between atoms: _684  and  _687
REMARK  262  A    between atoms: _687  and  _688
REMARK  263  A    between atoms: _688  and  _689
REMARK  264  A    between atoms: _689  and  _690
REMARK  265  A    between atoms: _690  and  _691
REMARK  266  A    between atoms: _695  and  _697
REMARK  267  A    between atoms: _697  and  _698
REMARK  268  A    between atoms: _700  and  _702
REMARK  269  A    between atoms: _702  and  _703
REMARK  270  A    between atoms: _702  and  _705
REMARK  271  A    between atoms: _705  and  _706
REMARK  272  A    between atoms: _711  and  _713
REMARK  273  A    between atoms: _713  and  _714
REMARK  274  A    between atoms: _713  and  _716
REMARK  275  A    between atoms: _716  and  _717
REMARK  276  A    between atoms: _717  and  _718
REMARK  277  A    between atoms: _718  and  _719
REMARK  278  A    between atoms: _728  and  _730
REMARK  279  A    between atoms: _730  and  _731
REMARK  280  A    between atoms: _730  and  _733
REMARK  281  A    between atoms: _733  and  _734
REMARK  282  A    between atoms: _737  and  _739
REMARK  283  A    between atoms: _739  and  _740
REMARK  284  A    between atoms: _739  and  _742
REMARK  285  A    between atoms: _745  and  _747
REMARK  286  A    between atoms: _747  and  _748
REMARK  287  A    between atoms: _747  and  _750
REMARK  288  A    between atoms: _750  and  _751
REMARK  289  A    between atoms: _751  and  _752
REMARK  290  A    between atoms: _758  and  _759
REMARK  291  A    between atoms: _764  and  _766
REMARK  292  A    between atoms: _766  and  _767
REMARK  293  A    between atoms: _766  and  _769
REMARK  294  A    between atoms: _769  and  _770
REMARK  295  A    between atoms: _773  and  _775
REMARK  296  A    between atoms: _775  and  _776
REMARK  297  A    between atoms: _775  and  _778
REMARK  298  A    between atoms: _778  and  _779
REMARK  299  A    between atoms: _782  and  _784
REMARK  300  A    between atoms: _784  and  _785
REMARK  301  A    between atoms: _784  and  _787
REMARK  302  A    between atoms: _787  and  _788
REMARK  303  A    between atoms: _790  and  _792
REMARK  304  A    between atoms: _792  and  _793
REMARK  305  A    between atoms: _792  and  _795
REMARK  306  A    between atoms: _795  and  _796
REMARK  307  A    between atoms: _796  and  _797
REMARK  308  A    between atoms: _797  and  _798
REMARK  309  A    between atoms: _807  and  _809
REMARK  310  A    between atoms: _809  and  _810
REMARK                            x       y       z     vdW  Elec       q    Type
REMARK                         _______ _______ _______ _____ _____    ______ ____
ROOT
ATOM      1  O   HOH     1     -35.997 -33.449 -35.547  0.00  0.00    +0.000 OA
ENDROOT
TORSDOF 0
REMARK  Name = ../refined-set-2016/3rt4/3rt4_pocket.pdb
REMARK  310 active torsions:
REMARK  status: ('A' for Active; 'I' for Inactive)
REMARK    1  A    between atoms: _1  and  _3
REMARK    2  A    between atoms: _3  and  _4
REMARK    3  A    between atoms: _3  and  _6
REMARK    4  A    between atoms: _6  and  _7
REMARK    5  A    between atoms: _7  and  _8
REMARK    6  A    between atoms: _8  and  _9
REMARK    7  A    between atoms: _18  and  _20
REMARK    8  A    between atoms: _20  and  _21
REMARK    9  A    between atoms: _20  and  _23
REMARK   10  A    between atoms: _26  and  _28
REMARK   11  A    between atoms: _28  and  _29
REMARK   12  A    between atoms: _28  and  _31
REMARK   13  A    between atoms: _31  and  _32
REMARK   14  A    between atoms: _32  and  _33
REMARK   15  A    between atoms: _33  and  _34
REMARK   16  A    between atoms: _43  and  _45
REMARK   17  A    between atoms: _45  and  _46
REMARK   18  A    between atoms: _45  and  _48
REMARK   19  A    between atoms: _48  and  _49
REMARK   20  A    between atoms: _51  and  _53
REMARK   21  A    between atoms: _53  and  _54
REMARK   22  A    between atoms: _53  and  _56
REMARK   23  A    between atoms: _56  and  _57
REMARK   24  A    between atoms: _62  and  _64
REMARK   25  A    between atoms: _64  and  _65
REMARK   26  A    between atoms: _64  and  _67
REMARK   27  A    between atoms: _67  and  _68
REMARK   28  A    between atoms: _73  and  _74
REMARK   29  A    between atoms: _76  and  _78
REMARK   30  A    between atoms: _78  and  _79
REMARK   31  A    between atoms: _78  and  _81
REMARK   32  A    between atoms: _81  and  _82
REMARK   33  A    between atoms: _82  and  _83
REMARK   34  A    between atoms: _86  and  _88
REMARK   35  A    between atoms: _88  and  _89
REMARK   36  A    between atoms: _88  and  _91
REMARK   37  A    between atoms: _91  and  _92
REMARK   38  A    between atoms: _92  and  _93
REMARK   39  A    between atoms: _93  and  _94
REMARK   40  A    between atoms: _94  and  _95
REMARK   41  A    between atoms: _99  and  _101
REMARK   42  A    between atoms: _101  and  _102
REMARK   43  A    between atoms: _101  and  _104
REMARK   44  A    between atoms: _104  and  _105
REMARK   45  A    between atoms: _110  and  _111
REMARK   46  A    between atoms: _113  and  _115
REMARK   47  A    between atoms: _115  and  _116
REMARK   48  A    between atoms: _115  and  _118
REMARK   49  A    between atoms: _118  and  _119
REMARK   50  A    between atoms: _119  and  _120
REMARK   51  A    between atoms: _120  and  _121
REMARK   52  A    between atoms: _130  and  _132
REMARK   53  A    between atoms: _132  and  _133
REMARK   54  A    between atoms: _136  and  _138
REMARK   55  A    between atoms: _138  and  _139
REMARK   56  A    between atoms: _138  and  _141
REMARK   57  A    between atoms: _141  and  _142
REMARK   58  A    between atoms: _142  and  _258
REMARK   59  A    between atoms: _143  and  _145
REMARK   60  A    between atoms: _145  and  _146
REMARK   61  A    between atoms: _145  and  _148
REMARK   62  A    between atoms: _148  and  _149
REMARK   63  A    between atoms: _149  and  _150
REMARK   64  A    between atoms: _153  and  _155
REMARK   65  A    between atoms: _155  and  _156
REMARK   66  A    between atoms: _155  and  _158
REMARK   67  A    between atoms: _158  and  _159
REMARK   68  A    between atoms: _161  and  _163
REMARK   69  A    between atoms: _163  and  _164
REMARK   70  A    between atoms: _163  and  _166
REMARK   71  A    between atoms: _166  and  _167
REMARK   72  A    between atoms: _172  and  _173
REMARK   73  A    between atoms: _175  and  _177
REMARK   74  A    between atoms: _177  and  _178
REMARK   75  A    between atoms: _177  and  _180
REMARK   76  A    between atoms: _180  and  _181
REMARK   77  A    between atoms: _186  and  _188
REMARK   78  A    between atoms: _188  and  _189
REMARK   79  A    between atoms: _188  and  _191
REMARK   80  A    between atoms: _194  and  _196
REMARK   81  A    between atoms: _196  and  _197
REMARK   82  A    between atoms: _196  and  _199
REMARK   83  A    between atoms: _199  and  _200
REMARK   84  A    between atoms: _200  and  _201
REMARK   85  A    between atoms: _201  and  _202
REMARK   86  A    between atoms: _211  and  _213
REMARK   87  A    between atoms: _213  and  _214
REMARK   88  A    between atoms: _213  and  _216
REMARK   89  A    between atoms: _216  and  _217
REMARK   90  A    between atoms: _222  and  _224
REMARK   91  A    between atoms: _224  and  _225
REMARK   92  A    between atoms: _224  and  _227
REMARK   93  A    between atoms: _227  and  _228
REMARK   94  A    between atoms: _231  and  _233
REMARK   95  A    between atoms: _233  and  _234
REMARK   96  A    between atoms: _236  and  _238
REMARK   97  A    between atoms: _238  and  _239
REMARK   98  A    between atoms: _238  and  _241
REMARK   99  A    between atoms: _241  and  _242
REMARK  100  A    between atoms: _252  and  _254
REMARK  101  A    between atoms: _254  and  _255
REMARK  102  A    between atoms: _254  and  _257
REMARK  103  A    between atoms: _257  and  _258
REMARK  104  A    between atoms: _259  and  _261
REMARK  105  A    between atoms: _261  and  _262
REMARK  106  A    between atoms: _261  and  _264
REMARK  107  A    between atoms: _264  and  _265
REMARK  108  A    between atoms: _268  and  _270
REMARK  109  A    between atoms: _270  and  _271
REMARK  110  A    between atoms: _273  and  _275
REMARK  111  A    between atoms: _275  and  _276
REMARK  112  A    between atoms: _275  and  _278
REMARK  113  A    between atoms: _278  and  _279
REMARK  114  A    between atoms: _284  and  _285
REMARK  115  A    between atoms: _287  and  _289
REMARK  116  A    between atoms: _289  and  _290
REMARK  117  A    between atoms: _289  and  _292
REMARK  118  A    between atoms: _292  and  _293
REMARK  119  A    between atoms: _293  and  _294
REMARK  120  A    between atoms: _294  and  _295
REMARK  121  A    between atoms: _304  and  _306
REMARK  122  A    between atoms: _306  and  _307
REMARK  123  A    between atoms: _306  and  _309
REMARK  124  A    between atoms: _309  and  _310
REMARK  125  A    between atoms: _310  and  _311
REMARK  126  A    between atoms: _311  and  _312
REMARK  127  A    between atoms: _312  and  _313
REMARK  128  A    between atoms: _317  and  _319
REMARK  129  A    between atoms: _319  and  _320
REMARK  130  A    between atoms: _322  and  _324
REMARK  131  A    between atoms: _324  and  _325
REMARK  132  A    between atoms: _328  and  _330
REMARK  133  A    between atoms: _330  and  _331
REMARK  134  A    between atoms: _330  and  _333
REMARK  135  A    between atoms: _333  and  _334
REMARK  136  A    between atoms: _339  and  _341
REMARK  137  A    between atoms: _341  and  _342
REMARK  138  A    between atoms: _345  and  _347
REMARK  139  A    between atoms: _347  and  _348
REMARK  140  A    between atoms: _351  and  _352
REMARK  141  A    between atoms: _357  and  _359
REMARK  142  A    between atoms: _359  and  _360
REMARK  143  A    between atoms: _359  and  _362
REMARK  144  A    between atoms: _362  and  _363
REMARK  145  A    between atoms: _366  and  _368
REMARK  146  A    between atoms: _368  and  _369
REMARK  147  A    between atoms: _368  and  _371
REMARK  148  A    between atoms: _371  and  _372
REMARK  149  A    between atoms: _382  and  _384
REMARK  150  A    between atoms: _384  and  _385
REMARK  151  A    between atoms: _384  and  _387
REMARK  152  A    between atoms: _387  and  _388
REMARK  153  A    between atoms: _394  and  _395
REMARK  154  A    between atoms: _400  and  _402
REMARK  155  A    between atoms: _402  and  _403
REMARK  156  A    between atoms: _402  and  _405
REMARK  157  A    between atoms: _405  and  _406
REMARK  158  A    between atoms: _409  and  _411
REMARK  159  A    between atoms: _411  and  _412
REMARK  160  A    between atoms: _411  and  _414
REMARK  161  A    between atoms: _414  and  _415
REMARK  162  A    between atoms: _417  and  _419
REMARK  163  A    between atoms: _419  and  _420
REMARK  164  A    between atoms: _419  and  _422
REMARK  165  A    between atoms: _422  and  _423
REMARK  166  A    between atoms: _428  and  _430
REMARK  167  A    between atoms: _430  and  _431
REMARK  168  A    between atoms: _430  and  _433
REMARK  169  A    between atoms: _436  and  _438
REMARK  170  A    between atoms: _438  and  _439
REMARK  171  A    between atoms: _438  and  _441
REMARK  172  A    between atoms: _441  and  _442
REMARK  173  A    between atoms: _442  and  _443
REMARK  174  A    between atoms: _449  and  _450
REMARK  175  A    between atoms: _455  and  _457
REMARK  176  A    between atoms: _457  and  _458
REMARK  177  A    between atoms: _457  and  _460
REMARK  178  A    between atoms: _460  and  _461
REMARK  179  A    between atoms: _464  and  _466
REMARK  180  A    between atoms: _466  and  _467
REMARK  181  A    between atoms: _466  and  _469
REMARK  182  A    between atoms: _469  and  _470
REMARK  183  A    between atoms: _473  and  _475
REMARK  184  A    between atoms: _475  and  _476
REMARK  185  A    between atoms: _475  and  _478
REMARK  186  A    between atoms: _478  and  _479
REMARK  187  A    between atoms: _481  and  _483
REMARK  188  A    between atoms: _483  and  _484
REMARK  189  A    between atoms: _483  and  _486
REMARK  190  A    between atoms: _486  and  _487
REMARK  191  A    between atoms: _492  and  _493
REMARK  192  A    between atoms: _495  and  _497
REMARK  193  A    between atoms: _497  and  _498
REMARK  194  A    between atoms: _497  and  _500
REMARK  195  A    between atoms: _500  and  _501
REMARK  196  A    between atoms: _506  and  _508
REMARK  197  A    between atoms: _508  and  _509
REMARK  198  A    between atoms: _508  and  _511
REMARK  199  A    between atoms: _511  and  _512
REMARK  200  A    between atoms: _515  and  _517
REMARK  201  A    between atoms: _517  and  _518
REMARK  202  A    between atoms: _517  and  _520
REMARK  203  A    between atoms: _520  and  _521
REMARK  204  A    between atoms: _531  and  _533
REMARK  205  A    between atoms: _533  and  _534
REMARK  206  A    between atoms: _536  and  _538
REMARK  207  A    between atoms: _538  and  _539
REMARK  208  A    between atoms: _538  and  _541
REMARK  209  A    between atoms: _541  and  _542
REMARK  210  A    between atoms: _547  and  _548
REMARK  211  A    between atoms: _550  and  _552
REMARK  212  A    between atoms: _552  and  _553
REMARK  213  A    between atoms: _552  and  _555
REMARK  214  A    between atoms: _555  and  _556
REMARK  215  A    between atoms: _556  and  _557
REMARK  216  A    between atoms: _557  and  _558
REMARK  217  A    between atoms: _567  and  _569
REMARK  218  A    between atoms: _569  and  _570
REMARK  219  A    between atoms: _569  and  _572
REMARK  220  A    between atoms: _572  and  _573
REMARK  221  A    between atoms: _573  and  _574
REMARK  222  A    between atoms: _574  and  _575
REMARK  223  A    between atoms: _575  and  _576
REMARK  224  A    between atoms: _580  and  _582
REMARK  225  A    between atoms: _582  and  _583
REMARK  226  A    between atoms: _585  and  _587
REMARK  227  A    between atoms: _587  and  _588
REMARK  228  A    between atoms: _591  and  _593
REMARK  229  A    between atoms: _593  and  _594
REMARK  230  A    between atoms: _593  and  _596
REMARK  231  A    between atoms: _596  and  _597
REMARK  232  A    between atoms: _602  and  _604
REMARK  233  A    between atoms: _604  and  _605
REMARK  234  A    between atoms: _608  and  _610
REMARK  235  A    between atoms: _610  and  _611
REMARK  236  A    between atoms: _614  and  _615
REMARK  237  A    between atoms: _620  and  _622
REMARK  238  A    between atoms: _622  and  _623
REMARK  239  A    between atoms: _622  and  _625
REMARK  240  A    between atoms: _625  and  _626
REMARK  241  A    between atoms: _629  and  _631
REMARK  242  A    between atoms: _631  and  _632
REMARK  243  A    between atoms: _631  and  _634
REMARK  244  A    between atoms: _634  and  _635
REMARK  245  A    between atoms: _645  and  _647
REMARK  246  A    between atoms: _647  and  _648
REMARK  247  A    between atoms: _647  and  _650
REMARK  248  A    between atoms: _650  and  _651
REMARK  249  A    between atoms: _657  and  _658
REMARK  250  A    between atoms: _663  and  _665
REMARK  251  A    between atoms: _665  and  _666
REMARK  252  A    between atoms: _665  and  _668
REMARK  253  A    between atoms: _668  and  _669
REMARK  254  A    between atoms: _672  and  _674
REMARK  255  A    between atoms: _674  and  _675
REMARK  256  A    between atoms: _674  and  _677
REMARK  257  A    between atoms: _677  and  _678
REMARK  258  A    between atoms: _678  and  _679
REMARK  259  A    between atoms: _682  and  _684
REMARK  260  A    between atoms: _684  and  _685
REMARK  261  A    between atoms: _684  and  _687
REMARK  262  A    between atoms: _687  and  _688
REMARK  263  A    between atoms: _688  and  _689
REMARK  264  A    between atoms: _689  and  _690
REMARK  265  A    between atoms: _690  and  _691
REMARK  266  A    between atoms: _695  and  _697
REMARK  267  A    between atoms: _697  and  _698
REMARK  268  A    between atoms: _700  and  _702
REMARK  269  A    between atoms: _702  and  _703
REMARK  270  A    between atoms: _702  and  _705
REMARK  271  A    between atoms: _705  and  _706
REMARK  272  A    between atoms: _711  and  _713
REMARK  273  A    between atoms: _713  and  _714
REMARK  274  A    between atoms: _713  and  _716
REMARK  275  A    between atoms: _716  and  _717
REMARK  276  A    between atoms: _717  and  _718
REMARK  277  A    between atoms: _718  and  _719
REMARK  278  A    between atoms: _728  and  _730
REMARK  279  A    between atoms: _730  and  _731
REMARK  280  A    between atoms: _730  and  _733
REMARK  281  A    between atoms: _733  and  _734
REMARK  282  A    between atoms: _737  and  _739
REMARK  283  A    between atoms: _739  and  _740
REMARK  284  A    between atoms: _739  and  _742
REMARK  285  A    between atoms: _745  and  _747
REMARK  286  A    between atoms: _747  and  _748
REMARK  287  A    between atoms: _747  and  _750
REMARK  288  A    between atoms: _750  and  _751
REMARK  289  A    between atoms: _751  and  _752
REMARK  290  A    between atoms: _758  and  _759
REMARK  291  A    between atoms: _764  and  _766
REMARK  292  A    between atoms: _766  and  _767
REMARK  293  A    between atoms: _766  and  _769
REMARK  294  A    between atoms: _769  and  _770
REMARK  295  A    between atoms: _773  and  _775
REMARK  296  A    between atoms: _775  and  _776
REMARK  297  A    between atoms: _775  and  _778
REMARK  298  A    between atoms: _778  and  _779
REMARK  299  A    between atoms: _782  and  _784
REMARK  300  A    between atoms: _784  and  _785
REMARK  301  A    between atoms: _784  and  _787
REMARK  302  A    between atoms: _787  and  _788
REMARK  303  A    between atoms: _790  and  _792
REMARK  304  A    between atoms: _792  and  _793
REMARK  305  A    between atoms: _792  and  _795
REMARK  306  A    between atoms: _795  and  _796
REMARK  307  A    between atoms: _796  and  _797
REMARK  308  A    between atoms: _797  and  _798
REMARK  309  A    between atoms: _807  and  _809
REMARK  310  A    between atoms: _809  and  _810
REMARK                            x       y       z     vdW  Elec       q    Type
REMARK                         _______ _______ _______ _____ _____    ______ ____
ROOT
ATOM      1  O   HOH     1     -27.687 -33.662 -28.187  0.00  0.00    +0.000 OA
ENDROOT
TORSDOF 0
REMARK  Name = ../refined-set-2016/3rt4/3rt4_pocket.pdb
REMARK  310 active torsions:
REMARK  status: ('A' for Active; 'I' for Inactive)
REMARK    1  A    between atoms: _1  and  _3
REMARK    2  A    between atoms: _3  and  _4
REMARK    3  A    between atoms: _3  and  _6
REMARK    4  A    between atoms: _6  and  _7
REMARK    5  A    between atoms: _7  and  _8
REMARK    6  A    between atoms: _8  and  _9
REMARK    7  A    between atoms: _18  and  _20
REMARK    8  A    between atoms: _20  and  _21
REMARK    9  A    between atoms: _20  and  _23
REMARK   10  A    between atoms: _26  and  _28
REMARK   11  A    between atoms: _28  and  _29
REMARK   12  A    between atoms: _28  and  _31
REMARK   13  A    between atoms: _31  and  _32
REMARK   14  A    between atoms: _32  and  _33
REMARK   15  A    between atoms: _33  and  _34
REMARK   16  A    between atoms: _43  and  _45
REMARK   17  A    between atoms: _45  and  _46
REMARK   18  A    between atoms: _45  and  _48
REMARK   19  A    between atoms: _48  and  _49
REMARK   20  A    between atoms: _51  and  _53
REMARK   21  A    between atoms: _53  and  _54
REMARK   22  A    between atoms: _53  and  _56
REMARK   23  A    between atoms: _56  and  _57
REMARK   24  A    between atoms: _62  and  _64
REMARK   25  A    between atoms: _64  and  _65
REMARK   26  A    between atoms: _64  and  _67
REMARK   27  A    between atoms: _67  and  _68
REMARK   28  A    between atoms: _73  and  _74
REMARK   29  A    between atoms: _76  and  _78
REMARK   30  A    between atoms: _78  and  _79
REMARK   31  A    between atoms: _78  and  _81
REMARK   32  A    between atoms: _81  and  _82
REMARK   33  A    between atoms: _82  and  _83
REMARK   34  A    between atoms: _86  and  _88
REMARK   35  A    between atoms: _88  and  _89
REMARK   36  A    between atoms: _88  and  _91
REMARK   37  A    between atoms: _91  and  _92
REMARK   38  A    between atoms: _92  and  _93
REMARK   39  A    between atoms: _93  and  _94
REMARK   40  A    between atoms: _94  and  _95
REMARK   41  A    between atoms: _99  and  _101
REMARK   42  A    between atoms: _101  and  _102
REMARK   43  A    between atoms: _101  and  _104
REMARK   44  A    between atoms: _104  and  _105
REMARK   45  A    between atoms: _110  and  _111
REMARK   46  A    between atoms: _113  and  _115
REMARK   47  A    between atoms: _115  and  _116
REMARK   48  A    between atoms: _115  and  _118
REMARK   49  A    between atoms: _118  and  _119
REMARK   50  A    between atoms: _119  and  _120
REMARK   51  A    between atoms: _120  and  _121
REMARK   52  A    between atoms: _130  and  _132
REMARK   53  A    between atoms: _132  and  _133
REMARK   54  A    between atoms: _136  and  _138
REMARK   55  A    between atoms: _138  and  _139
REMARK   56  A    between atoms: _138  and  _141
REMARK   57  A    between atoms: _141  and  _142
REMARK   58  A    between atoms: _142  and  _258
REMARK   59  A    between atoms: _143  and  _145
REMARK   60  A    between atoms: _145  and  _146
REMARK   61  A    between atoms: _145  and  _148
REMARK   62  A    between atoms: _148  and  _149
REMARK   63  A    between atoms: _149  and  _150
REMARK   64  A    between atoms: _153  and  _155
REMARK   65  A    between atoms: _155  and  _156
REMARK   66  A    between atoms: _155  and  _158
REMARK   67  A    between atoms: _158  and  _159
REMARK   68  A    between atoms: _161  and  _163
REMARK   69  A    between atoms: _163  and  _164
REMARK   70  A    between atoms: _163  and  _166
REMARK   71  A    between atoms: _166  and  _167
REMARK   72  A    between atoms: _172  and  _173
REMARK   73  A    between atoms: _175  and  _177
REMARK   74  A    between atoms: _177  and  _178
REMARK   75  A    between atoms: _177  and  _180
REMARK   76  A    between atoms: _180  and  _181
REMARK   77  A    between atoms: _186  and  _188
REMARK   78  A    between atoms: _188  and  _189
REMARK   79  A    between atoms: _188  and  _191
REMARK   80  A    between atoms: _194  and  _196
REMARK   81  A    between atoms: _196  and  _197
REMARK   82  A    between atoms: _196  and  _199
REMARK   83  A    between atoms: _199  and  _200
REMARK   84  A    between atoms: _200  and  _201
REMARK   85  A    between atoms: _201  and  _202
REMARK   86  A    between atoms: _211  and  _213
REMARK   87  A    between atoms: _213  and  _214
REMARK   88  A    between atoms: _213  and  _216
REMARK   89  A    between atoms: _216  and  _217
REMARK   90  A    between atoms: _222  and  _224
REMARK   91  A    between atoms: _224  and  _225
REMARK   92  A    between atoms: _224  and  _227
REMARK   93  A    between atoms: _227  and  _228
REMARK   94  A    between atoms: _231  and  _233
REMARK   95  A    between atoms: _233  and  _234
REMARK   96  A    between atoms: _236  and  _238
REMARK   97  A    between atoms: _238  and  _239
REMARK   98  A    between atoms: _238  and  _241
REMARK   99  A    between atoms: _241  and  _242
REMARK  100  A    between atoms: _252  and  _254
REMARK  101  A    between atoms: _254  and  _255
REMARK  102  A    between atoms: _254  and  _257
REMARK  103  A    between atoms: _257  and  _258
REMARK  104  A    between atoms: _259  and  _261
REMARK  105  A    between atoms: _261  and  _262
REMARK  106  A    between atoms: _261  and  _264
REMARK  107  A    between atoms: _264  and  _265
REMARK  108  A    between atoms: _268  and  _270
REMARK  109  A    between atoms: _270  and  _271
REMARK  110  A    between atoms: _273  and  _275
REMARK  111  A    between atoms: _275  and  _276
REMARK  112  A    between atoms: _275  and  _278
REMARK  113  A    between atoms: _278  and  _279
REMARK  114  A    between atoms: _284  and  _285
REMARK  115  A    between atoms: _287  and  _289
REMARK  116  A    between atoms: _289  and  _290
REMARK  117  A    between atoms: _289  and  _292
REMARK  118  A    between atoms: _292  and  _293
REMARK  119  A    between atoms: _293  and  _294
REMARK  120  A    between atoms: _294  and  _295
REMARK  121  A    between atoms: _304  and  _306
REMARK  122  A    between atoms: _306  and  _307
REMARK  123  A    between atoms: _306  and  _309
REMARK  124  A    between atoms: _309  and  _310
REMARK  125  A    between atoms: _310  and  _311
REMARK  126  A    between atoms: _311  and  _312
REMARK  127  A    between atoms: _312  and  _313
REMARK  128  A    between atoms: _317  and  _319
REMARK  129  A    between atoms: _319  and  _320
REMARK  130  A    between atoms: _322  and  _324
REMARK  131  A    between atoms: _324  and  _325
REMARK  132  A    between atoms: _328  and  _330
REMARK  133  A    between atoms: _330  and  _331
REMARK  134  A    between atoms: _330  and  _333
REMARK  135  A    between atoms: _333  and  _334
REMARK  136  A    between atoms: _339  and  _341
REMARK  137  A    between atoms: _341  and  _342
REMARK  138  A    between atoms: _345  and  _347
REMARK  139  A    between atoms: _347  and  _348
REMARK  140  A    between atoms: _351  and  _352
REMARK  141  A    between atoms: _357  and  _359
REMARK  142  A    between atoms: _359  and  _360
REMARK  143  A    between atoms: _359  and  _362
REMARK  144  A    between atoms: _362  and  _363
REMARK  145  A    between atoms: _366  and  _368
REMARK  146  A    between atoms: _368  and  _369
REMARK  147  A    between atoms: _368  and  _371
REMARK  148  A    between atoms: _371  and  _372
REMARK  149  A    between atoms: _382  and  _384
REMARK  150  A    between atoms: _384  and  _385
REMARK  151  A    between atoms: _384  and  _387
REMARK  152  A    between atoms: _387  and  _388
REMARK  153  A    between atoms: _394  and  _395
REMARK  154  A    between atoms: _400  and  _402
REMARK  155  A    between atoms: _402  and  _403
REMARK  156  A    between atoms: _402  and  _405
REMARK  157  A    between atoms: _405  and  _406
REMARK  158  A    between atoms: _409  and  _411
REMARK  159  A    between atoms: _411  and  _412
REMARK  160  A    between atoms: _411  and  _414
REMARK  161  A    between atoms: _414  and  _415
REMARK  162  A    between atoms: _417  and  _419
REMARK  163  A    between atoms: _419  and  _420
REMARK  164  A    between atoms: _419  and  _422
REMARK  165  A    between atoms: _422  and  _423
REMARK  166  A    between atoms: _428  and  _430
REMARK  167  A    between atoms: _430  and  _431
REMARK  168  A    between atoms: _430  and  _433
REMARK  169  A    between atoms: _436  and  _438
REMARK  170  A    between atoms: _438  and  _439
REMARK  171  A    between atoms: _438  and  _441
REMARK  172  A    between atoms: _441  and  _442
REMARK  173  A    between atoms: _442  and  _443
REMARK  174  A    between atoms: _449  and  _450
REMARK  175  A    between atoms: _455  and  _457
REMARK  176  A    between atoms: _457  and  _458
REMARK  177  A    between atoms: _457  and  _460
REMARK  178  A    between atoms: _460  and  _461
REMARK  179  A    between atoms: _464  and  _466
REMARK  180  A    between atoms: _466  and  _467
REMARK  181  A    between atoms: _466  and  _469
REMARK  182  A    between atoms: _469  and  _470
REMARK  183  A    between atoms: _473  and  _475
REMARK  184  A    between atoms: _475  and  _476
REMARK  185  A    between atoms: _475  and  _478
REMARK  186  A    between atoms: _478  and  _479
REMARK  187  A    between atoms: _481  and  _483
REMARK  188  A    between atoms: _483  and  _484
REMARK  189  A    between atoms: _483  and  _486
REMARK  190  A    between atoms: _486  and  _487
REMARK  191  A    between atoms: _492  and  _493
REMARK  192  A    between atoms: _495  and  _497
REMARK  193  A    between atoms: _497  and  _498
REMARK  194  A    between atoms: _497  and  _500
REMARK  195  A    between atoms: _500  and  _501
REMARK  196  A    between atoms: _506  and  _508
REMARK  197  A    between atoms: _508  and  _509
REMARK  198  A    between atoms: _508  and  _511
REMARK  199  A    between atoms: _511  and  _512
REMARK  200  A    between atoms: _515  and  _517
REMARK  201  A    between atoms: _517  and  _518
REMARK  202  A    between atoms: _517  and  _520
REMARK  203  A    between atoms: _520  and  _521
REMARK  204  A    between atoms: _531  and  _533
REMARK  205  A    between atoms: _533  and  _534
REMARK  206  A    between atoms: _536  and  _538
REMARK  207  A    between atoms: _538  and  _539
REMARK  208  A    between atoms: _538  and  _541
REMARK  209  A    between atoms: _541  and  _542
REMARK  210  A    between atoms: _547  and  _548
REMARK  211  A    between atoms: _550  and  _552
REMARK  212  A    between atoms: _552  and  _553
REMARK  213  A    between atoms: _552  and  _555
REMARK  214  A    between atoms: _555  and  _556
REMARK  215  A    between atoms: _556  and  _557
REMARK  216  A    between atoms: _557  and  _558
REMARK  217  A    between atoms: _567  and  _569
REMARK  218  A    between atoms: _569  and  _570
REMARK  219  A    between atoms: _569  and  _572
REMARK  220  A    between atoms: _572  and  _573
REMARK  221  A    between atoms: _573  and  _574
REMARK  222  A    between atoms: _574  and  _575
REMARK  223  A    between atoms: _575  and  _576
REMARK  224  A    between atoms: _580  and  _582
REMARK  225  A    between atoms: _582  and  _583
REMARK  226  A    between atoms: _585  and  _587
REMARK  227  A    between atoms: _587  and  _588
REMARK  228  A    between atoms: _591  and  _593
REMARK  229  A    between atoms: _593  and  _594
REMARK  230  A    between atoms: _593  and  _596
REMARK  231  A    between atoms: _596  and  _597
REMARK  232  A    between atoms: _602  and  _604
REMARK  233  A    between atoms: _604  and  _605
REMARK  234  A    between atoms: _608  and  _610
REMARK  235  A    between atoms: _610  and  _611
REMARK  236  A    between atoms: _614  and  _615
REMARK  237  A    between atoms: _620  and  _622
REMARK  238  A    between atoms: _622  and  _623
REMARK  239  A    between atoms: _622  and  _625
REMARK  240  A    between atoms: _625  and  _626
REMARK  241  A    between atoms: _629  and  _631
REMARK  242  A    between atoms: _631  and  _632
REMARK  243  A    between atoms: _631  and  _634
REMARK  244  A    between atoms: _634  and  _635
REMARK  245  A    between atoms: _645  and  _647
REMARK  246  A    between atoms: _647  and  _648
REMARK  247  A    between atoms: _647  and  _650
REMARK  248  A    between atoms: _650  and  _651
REMARK  249  A    between atoms: _657  and  _658
REMARK  250  A    between atoms: _663  and  _665
REMARK  251  A    between atoms: _665  and  _666
REMARK  252  A    between atoms: _665  and  _668
REMARK  253  A    between atoms: _668  and  _669
REMARK  254  A    between atoms: _672  and  _674
REMARK  255  A    between atoms: _674  and  _675
REMARK  256  A    between atoms: _674  and  _677
REMARK  257  A    between atoms: _677  and  _678
REMARK  258  A    between atoms: _678  and  _679
REMARK  259  A    between atoms: _682  and  _684
REMARK  260  A    between atoms: _684  and  _685
REMARK  261  A    between atoms: _684  and  _687
REMARK  262  A    between atoms: _687  and  _688
REMARK  263  A    between atoms: _688  and  _689
REMARK  264  A    between atoms: _689  and  _690
REMARK  265  A    between atoms: _690  and  _691
REMARK  266  A    between atoms: _695  and  _697
REMARK  267  A    between atoms: _697  and  _698
REMARK  268  A    between atoms: _700  and  _702
REMARK  269  A    between atoms: _702  and  _703
REMARK  270  A    between atoms: _702  and  _705
REMARK  271  A    between atoms: _705  and  _706
REMARK  272  A    between atoms: _711  and  _713
REMARK  273  A    between atoms: _713  and  _714
REMARK  274  A    between atoms: _713  and  _716
REMARK  275  A    between atoms: _716  and  _717
REMARK  276  A    between atoms: _717  and  _718
REMARK  277  A    between atoms: _718  and  _719
REMARK  278  A    between atoms: _728  and  _730
REMARK  279  A    between atoms: _730  and  _731
REMARK  280  A    between atoms: _730  and  _733
REMARK  281  A    between atoms: _733  and  _734
REMARK  282  A    between atoms: _737  and  _739
REMARK  283  A    between atoms: _739  and  _740
REMARK  284  A    between atoms: _739  and  _742
REMARK  285  A    between atoms: _745  and  _747
REMARK  286  A    between atoms: _747  and  _748
REMARK  287  A    between atoms: _747  and  _750
REMARK  288  A    between atoms: _750  and  _751
REMARK  289  A    between atoms: _751  and  _752
REMARK  290  A    between atoms: _758  and  _759
REMARK  291  A    between atoms: _764  and  _766
REMARK  292  A    between atoms: _766  and  _767
REMARK  293  A    between atoms: _766  and  _769
REMARK  294  A    between atoms: _769  and  _770
REMARK  295  A    between atoms: _773  and  _775
REMARK  296  A    between atoms: _775  and  _776
REMARK  297  A    between atoms: _775  and  _778
REMARK  298  A    between atoms: _778  and  _779
REMARK  299  A    between atoms: _782  and  _784
REMARK  300  A    between atoms: _784  and  _785
REMARK  301  A    between atoms: _784  and  _787
REMARK  302  A    between atoms: _787  and  _788
REMARK  303  A    between atoms: _790  and  _792
REMARK  304  A    between atoms: _792  and  _793
REMARK  305  A    between atoms: _792  and  _795
REMARK  306  A    between atoms: _795  and  _796
REMARK  307  A    between atoms: _796  and  _797
REMARK  308  A    between atoms: _797  and  _798
REMARK  309  A    between atoms: _807  and  _809
REMARK  310  A    between atoms: _809  and  _810
REMARK                            x       y       z     vdW  Elec       q    Type
REMARK                         _______ _______ _______ _____ _____    ______ ____
ROOT
ATOM      1  O   HOH     1     -25.715 -31.164 -26.120  0.00  0.00    +0.000 OA
ENDROOT
TORSDOF 0
REMARK  Name = ../refined-set-2016/3rt4/3rt4_pocket.pdb
REMARK  310 active torsions:
REMARK  status: ('A' for Active; 'I' for Inactive)
REMARK    1  A    between atoms: _1  and  _3
REMARK    2  A    between atoms: _3  and  _4
REMARK    3  A    between atoms: _3  and  _6
REMARK    4  A    between atoms: _6  and  _7
REMARK    5  A    between atoms: _7  and  _8
REMARK    6  A    between atoms: _8  and  _9
REMARK    7  A    between atoms: _18  and  _20
REMARK    8  A    between atoms: _20  and  _21
REMARK    9  A    between atoms: _20  and  _23
REMARK   10  A    between atoms: _26  and  _28
REMARK   11  A    between atoms: _28  and  _29
REMARK   12  A    between atoms: _28  and  _31
REMARK   13  A    between atoms: _31  and  _32
REMARK   14  A    between atoms: _32  and  _33
REMARK   15  A    between atoms: _33  and  _34
REMARK   16  A    between atoms: _43  and  _45
REMARK   17  A    between atoms: _45  and  _46
REMARK   18  A    between atoms: _45  and  _48
REMARK   19  A    between atoms: _48  and  _49
REMARK   20  A    between atoms: _51  and  _53
REMARK   21  A    between atoms: _53  and  _54
REMARK   22  A    between atoms: _53  and  _56
REMARK   23  A    between atoms: _56  and  _57
REMARK   24  A    between atoms: _62  and  _64
REMARK   25  A    between atoms: _64  and  _65
REMARK   26  A    between atoms: _64  and  _67
REMARK   27  A    between atoms: _67  and  _68
REMARK   28  A    between atoms: _73  and  _74
REMARK   29  A    between atoms: _76  and  _78
REMARK   30  A    between atoms: _78  and  _79
REMARK   31  A    between atoms: _78  and  _81
REMARK   32  A    between atoms: _81  and  _82
REMARK   33  A    between atoms: _82  and  _83
REMARK   34  A    between atoms: _86  and  _88
REMARK   35  A    between atoms: _88  and  _89
REMARK   36  A    between atoms: _88  and  _91
REMARK   37  A    between atoms: _91  and  _92
REMARK   38  A    between atoms: _92  and  _93
REMARK   39  A    between atoms: _93  and  _94
REMARK   40  A    between atoms: _94  and  _95
REMARK   41  A    between atoms: _99  and  _101
REMARK   42  A    between atoms: _101  and  _102
REMARK   43  A    between atoms: _101  and  _104
REMARK   44  A    between atoms: _104  and  _105
REMARK   45  A    between atoms: _110  and  _111
REMARK   46  A    between atoms: _113  and  _115
REMARK   47  A    between atoms: _115  and  _116
REMARK   48  A    between atoms: _115  and  _118
REMARK   49  A    between atoms: _118  and  _119
REMARK   50  A    between atoms: _119  and  _120
REMARK   51  A    between atoms: _120  and  _121
REMARK   52  A    between atoms: _130  and  _132
REMARK   53  A    between atoms: _132  and  _133
REMARK   54  A    between atoms: _136  and  _138
REMARK   55  A    between atoms: _138  and  _139
REMARK   56  A    between atoms: _138  and  _141
REMARK   57  A    between atoms: _141  and  _142
REMARK   58  A    between atoms: _142  and  _258
REMARK   59  A    between atoms: _143  and  _145
REMARK   60  A    between atoms: _145  and  _146
REMARK   61  A    between atoms: _145  and  _148
REMARK   62  A    between atoms: _148  and  _149
REMARK   63  A    between atoms: _149  and  _150
REMARK   64  A    between atoms: _153  and  _155
REMARK   65  A    between atoms: _155  and  _156
REMARK   66  A    between atoms: _155  and  _158
REMARK   67  A    between atoms: _158  and  _159
REMARK   68  A    between atoms: _161  and  _163
REMARK   69  A    between atoms: _163  and  _164
REMARK   70  A    between atoms: _163  and  _166
REMARK   71  A    between atoms: _166  and  _167
REMARK   72  A    between atoms: _172  and  _173
REMARK   73  A    between atoms: _175  and  _177
REMARK   74  A    between atoms: _177  and  _178
REMARK   75  A    between atoms: _177  and  _180
REMARK   76  A    between atoms: _180  and  _181
REMARK   77  A    between atoms: _186  and  _188
REMARK   78  A    between atoms: _188  and  _189
REMARK   79  A    between atoms: _188  and  _191
REMARK   80  A    between atoms: _194  and  _196
REMARK   81  A    between atoms: _196  and  _197
REMARK   82  A    between atoms: _196  and  _199
REMARK   83  A    between atoms: _199  and  _200
REMARK   84  A    between atoms: _200  and  _201
REMARK   85  A    between atoms: _201  and  _202
REMARK   86  A    between atoms: _211  and  _213
REMARK   87  A    between atoms: _213  and  _214
REMARK   88  A    between atoms: _213  and  _216
REMARK   89  A    between atoms: _216  and  _217
REMARK   90  A    between atoms: _222  and  _224
REMARK   91  A    between atoms: _224  and  _225
REMARK   92  A    between atoms: _224  and  _227
REMARK   93  A    between atoms: _227  and  _228
REMARK   94  A    between atoms: _231  and  _233
REMARK   95  A    between atoms: _233  and  _234
REMARK   96  A    between atoms: _236  and  _238
REMARK   97  A    between atoms: _238  and  _239
REMARK   98  A    between atoms: _238  and  _241
REMARK   99  A    between atoms: _241  and  _242
REMARK  100  A    between atoms: _252  and  _254
REMARK  101  A    between atoms: _254  and  _255
REMARK  102  A    between atoms: _254  and  _257
REMARK  103  A    between atoms: _257  and  _258
REMARK  104  A    between atoms: _259  and  _261
REMARK  105  A    between atoms: _261  and  _262
REMARK  106  A    between atoms: _261  and  _264
REMARK  107  A    between atoms: _264  and  _265
REMARK  108  A    between atoms: _268  and  _270
REMARK  109  A    between atoms: _270  and  _271
REMARK  110  A    between atoms: _273  and  _275
REMARK  111  A    between atoms: _275  and  _276
REMARK  112  A    between atoms: _275  and  _278
REMARK  113  A    between atoms: _278  and  _279
REMARK  114  A    between atoms: _284  and  _285
REMARK  115  A    between atoms: _287  and  _289
REMARK  116  A    between atoms: _289  and  _290
REMARK  117  A    between atoms: _289  and  _292
REMARK  118  A    between atoms: _292  and  _293
REMARK  119  A    between atoms: _293  and  _294
REMARK  120  A    between atoms: _294  and  _295
REMARK  121  A    between atoms: _304  and  _306
REMARK  122  A    between atoms: _306  and  _307
REMARK  123  A    between atoms: _306  and  _309
REMARK  124  A    between atoms: _309  and  _310
REMARK  125  A    between atoms: _310  and  _311
REMARK  126  A    between atoms: _311  and  _312
REMARK  127  A    between atoms: _312  and  _313
REMARK  128  A    between atoms: _317  and  _319
REMARK  129  A    between atoms: _319  and  _320
REMARK  130  A    between atoms: _322  and  _324
REMARK  131  A    between atoms: _324  and  _325
REMARK  132  A    between atoms: _328  and  _330
REMARK  133  A    between atoms: _330  and  _331
REMARK  134  A    between atoms: _330  and  _333
REMARK  135  A    between atoms: _333  and  _334
REMARK  136  A    between atoms: _339  and  _341
REMARK  137  A    between atoms: _341  and  _342
REMARK  138  A    between atoms: _345  and  _347
REMARK  139  A    between atoms: _347  and  _348
REMARK  140  A    between atoms: _351  and  _352
REMARK  141  A    between atoms: _357  and  _359
REMARK  142  A    between atoms: _359  and  _360
REMARK  143  A    between atoms: _359  and  _362
REMARK  144  A    between atoms: _362  and  _363
REMARK  145  A    between atoms: _366  and  _368
REMARK  146  A    between atoms: _368  and  _369
REMARK  147  A    between atoms: _368  and  _371
REMARK  148  A    between atoms: _371  and  _372
REMARK  149  A    between atoms: _382  and  _384
REMARK  150  A    between atoms: _384  and  _385
REMARK  151  A    between atoms: _384  and  _387
REMARK  152  A    between atoms: _387  and  _388
REMARK  153  A    between atoms: _394  and  _395
REMARK  154  A    between atoms: _400  and  _402
REMARK  155  A    between atoms: _402  and  _403
REMARK  156  A    between atoms: _402  and  _405
REMARK  157  A    between atoms: _405  and  _406
REMARK  158  A    between atoms: _409  and  _411
REMARK  159  A    between atoms: _411  and  _412
REMARK  160  A    between atoms: _411  and  _414
REMARK  161  A    between atoms: _414  and  _415
REMARK  162  A    between atoms: _417  and  _419
REMARK  163  A    between atoms: _419  and  _420
REMARK  164  A    between atoms: _419  and  _422
REMARK  165  A    between atoms: _422  and  _423
REMARK  166  A    between atoms: _428  and  _430
REMARK  167  A    between atoms: _430  and  _431
REMARK  168  A    between atoms: _430  and  _433
REMARK  169  A    between atoms: _436  and  _438
REMARK  170  A    between atoms: _438  and  _439
REMARK  171  A    between atoms: _438  and  _441
REMARK  172  A    between atoms: _441  and  _442
REMARK  173  A    between atoms: _442  and  _443
REMARK  174  A    between atoms: _449  and  _450
REMARK  175  A    between atoms: _455  and  _457
REMARK  176  A    between atoms: _457  and  _458
REMARK  177  A    between atoms: _457  and  _460
REMARK  178  A    between atoms: _460  and  _461
REMARK  179  A    between atoms: _464  and  _466
REMARK  180  A    between atoms: _466  and  _467
REMARK  181  A    between atoms: _466  and  _469
REMARK  182  A    between atoms: _469  and  _470
REMARK  183  A    between atoms: _473  and  _475
REMARK  184  A    between atoms: _475  and  _476
REMARK  185  A    between atoms: _475  and  _478
REMARK  186  A    between atoms: _478  and  _479
REMARK  187  A    between atoms: _481  and  _483
REMARK  188  A    between atoms: _483  and  _484
REMARK  189  A    between atoms: _483  and  _486
REMARK  190  A    between atoms: _486  and  _487
REMARK  191  A    between atoms: _492  and  _493
REMARK  192  A    between atoms: _495  and  _497
REMARK  193  A    between atoms: _497  and  _498
REMARK  194  A    between atoms: _497  and  _500
REMARK  195  A    between atoms: _500  and  _501
REMARK  196  A    between atoms: _506  and  _508
REMARK  197  A    between atoms: _508  and  _509
REMARK  198  A    between atoms: _508  and  _511
REMARK  199  A    between atoms: _511  and  _512
REMARK  200  A    between atoms: _515  and  _517
REMARK  201  A    between atoms: _517  and  _518
REMARK  202  A    between atoms: _517  and  _520
REMARK  203  A    between atoms: _520  and  _521
REMARK  204  A    between atoms: _531  and  _533
REMARK  205  A    between atoms: _533  and  _534
REMARK  206  A    between atoms: _536  and  _538
REMARK  207  A    between atoms: _538  and  _539
REMARK  208  A    between atoms: _538  and  _541
REMARK  209  A    between atoms: _541  and  _542
REMARK  210  A    between atoms: _547  and  _548
REMARK  211  A    between atoms: _550  and  _552
REMARK  212  A    between atoms: _552  and  _553
REMARK  213  A    between atoms: _552  and  _555
REMARK  214  A    between atoms: _555  and  _556
REMARK  215  A    between atoms: _556  and  _557
REMARK  216  A    between atoms: _557  and  _558
REMARK  217  A    between atoms: _567  and  _569
REMARK  218  A    between atoms: _569  and  _570
REMARK  219  A    between atoms: _569  and  _572
REMARK  220  A    between atoms: _572  and  _573
REMARK  221  A    between atoms: _573  and  _574
REMARK  222  A    between atoms: _574  and  _575
REMARK  223  A    between atoms: _575  and  _576
REMARK  224  A    between atoms: _580  and  _582
REMARK  225  A    between atoms: _582  and  _583
REMARK  226  A    between atoms: _585  and  _587
REMARK  227  A    between atoms: _587  and  _588
REMARK  228  A    between atoms: _591  and  _593
REMARK  229  A    between atoms: _593  and  _594
REMARK  230  A    between atoms: _593  and  _596
REMARK  231  A    between atoms: _596  and  _597
REMARK  232  A    between atoms: _602  and  _604
REMARK  233  A    between atoms: _604  and  _605
REMARK  234  A    between atoms: _608  and  _610
REMARK  235  A    between atoms: _610  and  _611
REMARK  236  A    between atoms: _614  and  _615
REMARK  237  A    between atoms: _620  and  _622
REMARK  238  A    between atoms: _622  and  _623
REMARK  239  A    between atoms: _622  and  _625
REMARK  240  A    between atoms: _625  and  _626
REMARK  241  A    between atoms: _629  and  _631
REMARK  242  A    between atoms: _631  and  _632
REMARK  243  A    between atoms: _631  and  _634
REMARK  244  A    between atoms: _634  and  _635
REMARK  245  A    between atoms: _645  and  _647
REMARK  246  A    between atoms: _647  and  _648
REMARK  247  A    between atoms: _647  and  _650
REMARK  248  A    between atoms: _650  and  _651
REMARK  249  A    between atoms: _657  and  _658
REMARK  250  A    between atoms: _663  and  _665
REMARK  251  A    between atoms: _665  and  _666
REMARK  252  A    between atoms: _665  and  _668
REMARK  253  A    between atoms: _668  and  _669
REMARK  254  A    between atoms: _672  and  _674
REMARK  255  A    between atoms: _674  and  _675
REMARK  256  A    between atoms: _674  and  _677
REMARK  257  A    between atoms: _677  and  _678
REMARK  258  A    between atoms: _678  and  _679
REMARK  259  A    between atoms: _682  and  _684
REMARK  260  A    between atoms: _684  and  _685
REMARK  261  A    between atoms: _684  and  _687
REMARK  262  A    between atoms: _687  and  _688
REMARK  263  A    between atoms: _688  and  _689
REMARK  264  A    between atoms: _689  and  _690
REMARK  265  A    between atoms: _690  and  _691
REMARK  266  A    between atoms: _695  and  _697
REMARK  267  A    between atoms: _697  and  _698
REMARK  268  A    between atoms: _700  and  _702
REMARK  269  A    between atoms: _702  and  _703
REMARK  270  A    between atoms: _702  and  _705
REMARK  271  A    between atoms: _705  and  _706
REMARK  272  A    between atoms: _711  and  _713
REMARK  273  A    between atoms: _713  and  _714
REMARK  274  A    between atoms: _713  and  _716
REMARK  275  A    between atoms: _716  and  _717
REMARK  276  A    between atoms: _717  and  _718
REMARK  277  A    between atoms: _718  and  _719
REMARK  278  A    between atoms: _728  and  _730
REMARK  279  A    between atoms: _730  and  _731
REMARK  280  A    between atoms: _730  and  _733
REMARK  281  A    between atoms: _733  and  _734
REMARK  282  A    between atoms: _737  and  _739
REMARK  283  A    between atoms: _739  and  _740
REMARK  284  A    between atoms: _739  and  _742
REMARK  285  A    between atoms: _745  and  _747
REMARK  286  A    between atoms: _747  and  _748
REMARK  287  A    between atoms: _747  and  _750
REMARK  288  A    between atoms: _750  and  _751
REMARK  289  A    between atoms: _751  and  _752
REMARK  290  A    between atoms: _758  and  _759
REMARK  291  A    between atoms: _764  and  _766
REMARK  292  A    between atoms: _766  and  _767
REMARK  293  A    between atoms: _766  and  _769
REMARK  294  A    between atoms: _769  and  _770
REMARK  295  A    between atoms: _773  and  _775
REMARK  296  A    between atoms: _775  and  _776
REMARK  297  A    between atoms: _775  and  _778
REMARK  298  A    between atoms: _778  and  _779
REMARK  299  A    between atoms: _782  and  _784
REMARK  300  A    between atoms: _784  and  _785
REMARK  301  A    between atoms: _784  and  _787
REMARK  302  A    between atoms: _787  and  _788
REMARK  303  A    between atoms: _790  and  _792
REMARK  304  A    between atoms: _792  and  _793
REMARK  305  A    between atoms: _792  and  _795
REMARK  306  A    between atoms: _795  and  _796
REMARK  307  A    between atoms: _796  and  _797
REMARK  308  A    between atoms: _797  and  _798
REMARK  309  A    between atoms: _807  and  _809
REMARK  310  A    between atoms: _809  and  _810
REMARK                            x       y       z     vdW  Elec       q    Type
REMARK                         _______ _______ _______ _____ _____    ______ ____
ROOT
ATOM      1  O   HOH     1     -35.037 -33.089 -28.796  0.00  0.00    +0.000 OA
ENDROOT
TORSDOF 0
REMARK  Name = ../refined-set-2016/3rt4/3rt4_pocket.pdb
REMARK  310 active torsions:
REMARK  status: ('A' for Active; 'I' for Inactive)
REMARK    1  A    between atoms: _1  and  _3
REMARK    2  A    between atoms: _3  and  _4
REMARK    3  A    between atoms: _3  and  _6
REMARK    4  A    between atoms: _6  and  _7
REMARK    5  A    between atoms: _7  and  _8
REMARK    6  A    between atoms: _8  and  _9
REMARK    7  A    between atoms: _18  and  _20
REMARK    8  A    between atoms: _20  and  _21
REMARK    9  A    between atoms: _20  and  _23
REMARK   10  A    between atoms: _26  and  _28
REMARK   11  A    between atoms: _28  and  _29
REMARK   12  A    between atoms: _28  and  _31
REMARK   13  A    between atoms: _31  and  _32
REMARK   14  A    between atoms: _32  and  _33
REMARK   15  A    between atoms: _33  and  _34
REMARK   16  A    between atoms: _43  and  _45
REMARK   17  A    between atoms: _45  and  _46
REMARK   18  A    between atoms: _45  and  _48
REMARK   19  A    between atoms: _48  and  _49
REMARK   20  A    between atoms: _51  and  _53
REMARK   21  A    between atoms: _53  and  _54
REMARK   22  A    between atoms: _53  and  _56
REMARK   23  A    between atoms: _56  and  _57
REMARK   24  A    between atoms: _62  and  _64
REMARK   25  A    between atoms: _64  and  _65
REMARK   26  A    between atoms: _64  and  _67
REMARK   27  A    between atoms: _67  and  _68
REMARK   28  A    between atoms: _73  and  _74
REMARK   29  A    between atoms: _76  and  _78
REMARK   30  A    between atoms: _78  and  _79
REMARK   31  A    between atoms: _78  and  _81
REMARK   32  A    between atoms: _81  and  _82
REMARK   33  A    between atoms: _82  and  _83
REMARK   34  A    between atoms: _86  and  _88
REMARK   35  A    between atoms: _88  and  _89
REMARK   36  A    between atoms: _88  and  _91
REMARK   37  A    between atoms: _91  and  _92
REMARK   38  A    between atoms: _92  and  _93
REMARK   39  A    between atoms: _93  and  _94
REMARK   40  A    between atoms: _94  and  _95
REMARK   41  A    between atoms: _99  and  _101
REMARK   42  A    between atoms: _101  and  _102
REMARK   43  A    between atoms: _101  and  _104
REMARK   44  A    between atoms: _104  and  _105
REMARK   45  A    between atoms: _110  and  _111
REMARK   46  A    between atoms: _113  and  _115
REMARK   47  A    between atoms: _115  and  _116
REMARK   48  A    between atoms: _115  and  _118
REMARK   49  A    between atoms: _118  and  _119
REMARK   50  A    between atoms: _119  and  _120
REMARK   51  A    between atoms: _120  and  _121
REMARK   52  A    between atoms: _130  and  _132
REMARK   53  A    between atoms: _132  and  _133
REMARK   54  A    between atoms: _136  and  _138
REMARK   55  A    between atoms: _138  and  _139
REMARK   56  A    between atoms: _138  and  _141
REMARK   57  A    between atoms: _141  and  _142
REMARK   58  A    between atoms: _142  and  _258
REMARK   59  A    between atoms: _143  and  _145
REMARK   60  A    between atoms: _145  and  _146
REMARK   61  A    between atoms: _145  and  _148
REMARK   62  A    between atoms: _148  and  _149
REMARK   63  A    between atoms: _149  and  _150
REMARK   64  A    between atoms: _153  and  _155
REMARK   65  A    between atoms: _155  and  _156
REMARK   66  A    between atoms: _155  and  _158
REMARK   67  A    between atoms: _158  and  _159
REMARK   68  A    between atoms: _161  and  _163
REMARK   69  A    between atoms: _163  and  _164
REMARK   70  A    between atoms: _163  and  _166
REMARK   71  A    between atoms: _166  and  _167
REMARK   72  A    between atoms: _172  and  _173
REMARK   73  A    between atoms: _175  and  _177
REMARK   74  A    between atoms: _177  and  _178
REMARK   75  A    between atoms: _177  and  _180
REMARK   76  A    between atoms: _180  and  _181
REMARK   77  A    between atoms: _186  and  _188
REMARK   78  A    between atoms: _188  and  _189
REMARK   79  A    between atoms: _188  and  _191
REMARK   80  A    between atoms: _194  and  _196
REMARK   81  A    between atoms: _196  and  _197
REMARK   82  A    between atoms: _196  and  _199
REMARK   83  A    between atoms: _199  and  _200
REMARK   84  A    between atoms: _200  and  _201
REMARK   85  A    between atoms: _201  and  _202
REMARK   86  A    between atoms: _211  and  _213
REMARK   87  A    between atoms: _213  and  _214
REMARK   88  A    between atoms: _213  and  _216
REMARK   89  A    between atoms: _216  and  _217
REMARK   90  A    between atoms: _222  and  _224
REMARK   91  A    between atoms: _224  and  _225
REMARK   92  A    between atoms: _224  and  _227
REMARK   93  A    between atoms: _227  and  _228
REMARK   94  A    between atoms: _231  and  _233
REMARK   95  A    between atoms: _233  and  _234
REMARK   96  A    between atoms: _236  and  _238
REMARK   97  A    between atoms: _238  and  _239
REMARK   98  A    between atoms: _238  and  _241
REMARK   99  A    between atoms: _241  and  _242
REMARK  100  A    between atoms: _252  and  _254
REMARK  101  A    between atoms: _254  and  _255
REMARK  102  A    between atoms: _254  and  _257
REMARK  103  A    between atoms: _257  and  _258
REMARK  104  A    between atoms: _259  and  _261
REMARK  105  A    between atoms: _261  and  _262
REMARK  106  A    between atoms: _261  and  _264
REMARK  107  A    between atoms: _264  and  _265
REMARK  108  A    between atoms: _268  and  _270
REMARK  109  A    between atoms: _270  and  _271
REMARK  110  A    between atoms: _273  and  _275
REMARK  111  A    between atoms: _275  and  _276
REMARK  112  A    between atoms: _275  and  _278
REMARK  113  A    between atoms: _278  and  _279
REMARK  114  A    between atoms: _284  and  _285
REMARK  115  A    between atoms: _287  and  _289
REMARK  116  A    between atoms: _289  and  _290
REMARK  117  A    between atoms: _289  and  _292
REMARK  118  A    between atoms: _292  and  _293
REMARK  119  A    between atoms: _293  and  _294
REMARK  120  A    between atoms: _294  and  _295
REMARK  121  A    between atoms: _304  and  _306
REMARK  122  A    between atoms: _306  and  _307
REMARK  123  A    between atoms: _306  and  _309
REMARK  124  A    between atoms: _309  and  _310
REMARK  125  A    between atoms: _310  and  _311
REMARK  126  A    between atoms: _311  and  _312
REMARK  127  A    between atoms: _312  and  _313
REMARK  128  A    between atoms: _317  and  _319
REMARK  129  A    between atoms: _319  and  _320
REMARK  130  A    between atoms: _322  and  _324
REMARK  131  A    between atoms: _324  and  _325
REMARK  132  A    between atoms: _328  and  _330
REMARK  133  A    between atoms: _330  and  _331
REMARK  134  A    between atoms: _330  and  _333
REMARK  135  A    between atoms: _333  and  _334
REMARK  136  A    between atoms: _339  and  _341
REMARK  137  A    between atoms: _341  and  _342
REMARK  138  A    between atoms: _345  and  _347
REMARK  139  A    between atoms: _347  and  _348
REMARK  140  A    between atoms: _351  and  _352
REMARK  141  A    between atoms: _357  and  _359
REMARK  142  A    between atoms: _359  and  _360
REMARK  143  A    between atoms: _359  and  _362
REMARK  144  A    between atoms: _362  and  _363
REMARK  145  A    between atoms: _366  and  _368
REMARK  146  A    between atoms: _368  and  _369
REMARK  147  A    between atoms: _368  and  _371
REMARK  148  A    between atoms: _371  and  _372
REMARK  149  A    between atoms: _382  and  _384
REMARK  150  A    between atoms: _384  and  _385
REMARK  151  A    between atoms: _384  and  _387
REMARK  152  A    between atoms: _387  and  _388
REMARK  153  A    between atoms: _394  and  _395
REMARK  154  A    between atoms: _400  and  _402
REMARK  155  A    between atoms: _402  and  _403
REMARK  156  A    between atoms: _402  and  _405
REMARK  157  A    between atoms: _405  and  _406
REMARK  158  A    between atoms: _409  and  _411
REMARK  159  A    between atoms: _411  and  _412
REMARK  160  A    between atoms: _411  and  _414
REMARK  161  A    between atoms: _414  and  _415
REMARK  162  A    between atoms: _417  and  _419
REMARK  163  A    between atoms: _419  and  _420
REMARK  164  A    between atoms: _419  and  _422
REMARK  165  A    between atoms: _422  and  _423
REMARK  166  A    between atoms: _428  and  _430
REMARK  167  A    between atoms: _430  and  _431
REMARK  168  A    between atoms: _430  and  _433
REMARK  169  A    between atoms: _436  and  _438
REMARK  170  A    between atoms: _438  and  _439
REMARK  171  A    between atoms: _438  and  _441
REMARK  172  A    between atoms: _441  and  _442
REMARK  173  A    between atoms: _442  and  _443
REMARK  174  A    between atoms: _449  and  _450
REMARK  175  A    between atoms: _455  and  _457
REMARK  176  A    between atoms: _457  and  _458
REMARK  177  A    between atoms: _457  and  _460
REMARK  178  A    between atoms: _460  and  _461
REMARK  179  A    between atoms: _464  and  _466
REMARK  180  A    between atoms: _466  and  _467
REMARK  181  A    between atoms: _466  and  _469
REMARK  182  A    between atoms: _469  and  _470
REMARK  183  A    between atoms: _473  and  _475
REMARK  184  A    between atoms: _475  and  _476
REMARK  185  A    between atoms: _475  and  _478
REMARK  186  A    between atoms: _478  and  _479
REMARK  187  A    between atoms: _481  and  _483
REMARK  188  A    between atoms: _483  and  _484
REMARK  189  A    between atoms: _483  and  _486
REMARK  190  A    between atoms: _486  and  _487
REMARK  191  A    between atoms: _492  and  _493
REMARK  192  A    between atoms: _495  and  _497
REMARK  193  A    between atoms: _497  and  _498
REMARK  194  A    between atoms: _497  and  _500
REMARK  195  A    between atoms: _500  and  _501
REMARK  196  A    between atoms: _506  and  _508
REMARK  197  A    between atoms: _508  and  _509
REMARK  198  A    between atoms: _508  and  _511
REMARK  199  A    between atoms: _511  and  _512
REMARK  200  A    between atoms: _515  and  _517
REMARK  201  A    between atoms: _517  and  _518
REMARK  202  A    between atoms: _517  and  _520
REMARK  203  A    between atoms: _520  and  _521
REMARK  204  A    between atoms: _531  and  _533
REMARK  205  A    between atoms: _533  and  _534
REMARK  206  A    between atoms: _536  and  _538
REMARK  207  A    between atoms: _538  and  _539
REMARK  208  A    between atoms: _538  and  _541
REMARK  209  A    between atoms: _541  and  _542
REMARK  210  A    between atoms: _547  and  _548
REMARK  211  A    between atoms: _550  and  _552
REMARK  212  A    between atoms: _552  and  _553
REMARK  213  A    between atoms: _552  and  _555
REMARK  214  A    between atoms: _555  and  _556
REMARK  215  A    between atoms: _556  and  _557
REMARK  216  A    between atoms: _557  and  _558
REMARK  217  A    between atoms: _567  and  _569
REMARK  218  A    between atoms: _569  and  _570
REMARK  219  A    between atoms: _569  and  _572
REMARK  220  A    between atoms: _572  and  _573
REMARK  221  A    between atoms: _573  and  _574
REMARK  222  A    between atoms: _574  and  _575
REMARK  223  A    between atoms: _575  and  _576
REMARK  224  A    between atoms: _580  and  _582
REMARK  225  A    between atoms: _582  and  _583
REMARK  226  A    between atoms: _585  and  _587
REMARK  227  A    between atoms: _587  and  _588
REMARK  228  A    between atoms: _591  and  _593
REMARK  229  A    between atoms: _593  and  _594
REMARK  230  A    between atoms: _593  and  _596
REMARK  231  A    between atoms: _596  and  _597
REMARK  232  A    between atoms: _602  and  _604
REMARK  233  A    between atoms: _604  and  _605
REMARK  234  A    between atoms: _608  and  _610
REMARK  235  A    between atoms: _610  and  _611
REMARK  236  A    between atoms: _614  and  _615
REMARK  237  A    between atoms: _620  and  _622
REMARK  238  A    between atoms: _622  and  _623
REMARK  239  A    between atoms: _622  and  _625
REMARK  240  A    between atoms: _625  and  _626
REMARK  241  A    between atoms: _629  and  _631
REMARK  242  A    between atoms: _631  and  _632
REMARK  243  A    between atoms: _631  and  _634
REMARK  244  A    between atoms: _634  and  _635
REMARK  245  A    between atoms: _645  and  _647
REMARK  246  A    between atoms: _647  and  _648
REMARK  247  A    between atoms: _647  and  _650
REMARK  248  A    between atoms: _650  and  _651
REMARK  249  A    between atoms: _657  and  _658
REMARK  250  A    between atoms: _663  and  _665
REMARK  251  A    between atoms: _665  and  _666
REMARK  252  A    between atoms: _665  and  _668
REMARK  253  A    between atoms: _668  and  _669
REMARK  254  A    between atoms: _672  and  _674
REMARK  255  A    between atoms: _674  and  _675
REMARK  256  A    between atoms: _674  and  _677
REMARK  257  A    between atoms: _677  and  _678
REMARK  258  A    between atoms: _678  and  _679
REMARK  259  A    between atoms: _682  and  _684
REMARK  260  A    between atoms: _684  and  _685
REMARK  261  A    between atoms: _684  and  _687
REMARK  262  A    between atoms: _687  and  _688
REMARK  263  A    between atoms: _688  and  _689
REMARK  264  A    between atoms: _689  and  _690
REMARK  265  A    between atoms: _690  and  _691
REMARK  266  A    between atoms: _695  and  _697
REMARK  267  A    between atoms: _697  and  _698
REMARK  268  A    between atoms: _700  and  _702
REMARK  269  A    between atoms: _702  and  _703
REMARK  270  A    between atoms: _702  and  _705
REMARK  271  A    between atoms: _705  and  _706
REMARK  272  A    between atoms: _711  and  _713
REMARK  273  A    between atoms: _713  and  _714
REMARK  274  A    between atoms: _713  and  _716
REMARK  275  A    between atoms: _716  and  _717
REMARK  276  A    between atoms: _717  and  _718
REMARK  277  A    between atoms: _718  and  _719
REMARK  278  A    between atoms: _728  and  _730
REMARK  279  A    between atoms: _730  and  _731
REMARK  280  A    between atoms: _730  and  _733
REMARK  281  A    between atoms: _733  and  _734
REMARK  282  A    between atoms: _737  and  _739
REMARK  283  A    between atoms: _739  and  _740
REMARK  284  A    between atoms: _739  and  _742
REMARK  285  A    between atoms: _745  and  _747
REMARK  286  A    between atoms: _747  and  _748
REMARK  287  A    between atoms: _747  and  _750
REMARK  288  A    between atoms: _750  and  _751
REMARK  289  A    between atoms: _751  and  _752
REMARK  290  A    between atoms: _758  and  _759
REMARK  291  A    between atoms: _764  and  _766
REMARK  292  A    between atoms: _766  and  _767
REMARK  293  A    between atoms: _766  and  _769
REMARK  294  A    between atoms: _769  and  _770
REMARK  295  A    between atoms: _773  and  _775
REMARK  296  A    between atoms: _775  and  _776
REMARK  297  A    between atoms: _775  and  _778
REMARK  298  A    between atoms: _778  and  _779
REMARK  299  A    between atoms: _782  and  _784
REMARK  300  A    between atoms: _784  and  _785
REMARK  301  A    between atoms: _784  and  _787
REMARK  302  A    between atoms: _787  and  _788
REMARK  303  A    between atoms: _790  and  _792
REMARK  304  A    between atoms: _792  and  _793
REMARK  305  A    between atoms: _792  and  _795
REMARK  306  A    between atoms: _795  and  _796
REMARK  307  A    between atoms: _796  and  _797
REMARK  308  A    between atoms: _797  and  _798
REMARK  309  A    between atoms: _807  and  _809
REMARK  310  A    between atoms: _809  and  _810
REMARK                            x       y       z     vdW  Elec       q    Type
REMARK                         _______ _______ _______ _____ _____    ______ ____
ROOT
ATOM      1  O   HOH     1     -17.901 -31.107 -26.026  0.00  0.00    +0.000 OA
ENDROOT
TORSDOF 0
REMARK  Name = ../refined-set-2016/3rt4/3rt4_pocket.pdb
REMARK  310 active torsions:
REMARK  status: ('A' for Active; 'I' for Inactive)
REMARK    1  A    between atoms: _1  and  _3
REMARK    2  A    between atoms: _3  and  _4
REMARK    3  A    between atoms: _3  and  _6
REMARK    4  A    between atoms: _6  and  _7
REMARK    5  A    between atoms: _7  and  _8
REMARK    6  A    between atoms: _8  and  _9
REMARK    7  A    between atoms: _18  and  _20
REMARK    8  A    between atoms: _20  and  _21
REMARK    9  A    between atoms: _20  and  _23
REMARK   10  A    between atoms: _26  and  _28
REMARK   11  A    between atoms: _28  and  _29
REMARK   12  A    between atoms: _28  and  _31
REMARK   13  A    between atoms: _31  and  _32
REMARK   14  A    between atoms: _32  and  _33
REMARK   15  A    between atoms: _33  and  _34
REMARK   16  A    between atoms: _43  and  _45
REMARK   17  A    between atoms: _45  and  _46
REMARK   18  A    between atoms: _45  and  _48
REMARK   19  A    between atoms: _48  and  _49
REMARK   20  A    between atoms: _51  and  _53
REMARK   21  A    between atoms: _53  and  _54
REMARK   22  A    between atoms: _53  and  _56
REMARK   23  A    between atoms: _56  and  _57
REMARK   24  A    between atoms: _62  and  _64
REMARK   25  A    between atoms: _64  and  _65
REMARK   26  A    between atoms: _64  and  _67
REMARK   27  A    between atoms: _67  and  _68
REMARK   28  A    between atoms: _73  and  _74
REMARK   29  A    between atoms: _76  and  _78
REMARK   30  A    between atoms: _78  and  _79
REMARK   31  A    between atoms: _78  and  _81
REMARK   32  A    between atoms: _81  and  _82
REMARK   33  A    between atoms: _82  and  _83
REMARK   34  A    between atoms: _86  and  _88
REMARK   35  A    between atoms: _88  and  _89
REMARK   36  A    between atoms: _88  and  _91
REMARK   37  A    between atoms: _91  and  _92
REMARK   38  A    between atoms: _92  and  _93
REMARK   39  A    between atoms: _93  and  _94
REMARK   40  A    between atoms: _94  and  _95
REMARK   41  A    between atoms: _99  and  _101
REMARK   42  A    between atoms: _101  and  _102
REMARK   43  A    between atoms: _101  and  _104
REMARK   44  A    between atoms: _104  and  _105
REMARK   45  A    between atoms: _110  and  _111
REMARK   46  A    between atoms: _113  and  _115
REMARK   47  A    between atoms: _115  and  _116
REMARK   48  A    between atoms: _115  and  _118
REMARK   49  A    between atoms: _118  and  _119
REMARK   50  A    between atoms: _119  and  _120
REMARK   51  A    between atoms: _120  and  _121
REMARK   52  A    between atoms: _130  and  _132
REMARK   53  A    between atoms: _132  and  _133
REMARK   54  A    between atoms: _136  and  _138
REMARK   55  A    between atoms: _138  and  _139
REMARK   56  A    between atoms: _138  and  _141
REMARK   57  A    between atoms: _141  and  _142
REMARK   58  A    between atoms: _142  and  _258
REMARK   59  A    between atoms: _143  and  _145
REMARK   60  A    between atoms: _145  and  _146
REMARK   61  A    between atoms: _145  and  _148
REMARK   62  A    between atoms: _148  and  _149
REMARK   63  A    between atoms: _149  and  _150
REMARK   64  A    between atoms: _153  and  _155
REMARK   65  A    between atoms: _155  and  _156
REMARK   66  A    between atoms: _155  and  _158
REMARK   67  A    between atoms: _158  and  _159
REMARK   68  A    between atoms: _161  and  _163
REMARK   69  A    between atoms: _163  and  _164
REMARK   70  A    between atoms: _163  and  _166
REMARK   71  A    between atoms: _166  and  _167
REMARK   72  A    between atoms: _172  and  _173
REMARK   73  A    between atoms: _175  and  _177
REMARK   74  A    between atoms: _177  and  _178
REMARK   75  A    between atoms: _177  and  _180
REMARK   76  A    between atoms: _180  and  _181
REMARK   77  A    between atoms: _186  and  _188
REMARK   78  A    between atoms: _188  and  _189
REMARK   79  A    between atoms: _188  and  _191
REMARK   80  A    between atoms: _194  and  _196
REMARK   81  A    between atoms: _196  and  _197
REMARK   82  A    between atoms: _196  and  _199
REMARK   83  A    between atoms: _199  and  _200
REMARK   84  A    between atoms: _200  and  _201
REMARK   85  A    between atoms: _201  and  _202
REMARK   86  A    between atoms: _211  and  _213
REMARK   87  A    between atoms: _213  and  _214
REMARK   88  A    between atoms: _213  and  _216
REMARK   89  A    between atoms: _216  and  _217
REMARK   90  A    between atoms: _222  and  _224
REMARK   91  A    between atoms: _224  and  _225
REMARK   92  A    between atoms: _224  and  _227
REMARK   93  A    between atoms: _227  and  _228
REMARK   94  A    between atoms: _231  and  _233
REMARK   95  A    between atoms: _233  and  _234
REMARK   96  A    between atoms: _236  and  _238
REMARK   97  A    between atoms: _238  and  _239
REMARK   98  A    between atoms: _238  and  _241
REMARK   99  A    between atoms: _241  and  _242
REMARK  100  A    between atoms: _252  and  _254
REMARK  101  A    between atoms: _254  and  _255
REMARK  102  A    between atoms: _254  and  _257
REMARK  103  A    between atoms: _257  and  _258
REMARK  104  A    between atoms: _259  and  _261
REMARK  105  A    between atoms: _261  and  _262
REMARK  106  A    between atoms: _261  and  _264
REMARK  107  A    between atoms: _264  and  _265
REMARK  108  A    between atoms: _268  and  _270
REMARK  109  A    between atoms: _270  and  _271
REMARK  110  A    between atoms: _273  and  _275
REMARK  111  A    between atoms: _275  and  _276
REMARK  112  A    between atoms: _275  and  _278
REMARK  113  A    between atoms: _278  and  _279
REMARK  114  A    between atoms: _284  and  _285
REMARK  115  A    between atoms: _287  and  _289
REMARK  116  A    between atoms: _289  and  _290
REMARK  117  A    between atoms: _289  and  _292
REMARK  118  A    between atoms: _292  and  _293
REMARK  119  A    between atoms: _293  and  _294
REMARK  120  A    between atoms: _294  and  _295
REMARK  121  A    between atoms: _304  and  _306
REMARK  122  A    between atoms: _306  and  _307
REMARK  123  A    between atoms: _306  and  _309
REMARK  124  A    between atoms: _309  and  _310
REMARK  125  A    between atoms: _310  and  _311
REMARK  126  A    between atoms: _311  and  _312
REMARK  127  A    between atoms: _312  and  _313
REMARK  128  A    between atoms: _317  and  _319
REMARK  129  A    between atoms: _319  and  _320
REMARK  130  A    between atoms: _322  and  _324
REMARK  131  A    between atoms: _324  and  _325
REMARK  132  A    between atoms: _328  and  _330
REMARK  133  A    between atoms: _330  and  _331
REMARK  134  A    between atoms: _330  and  _333
REMARK  135  A    between atoms: _333  and  _334
REMARK  136  A    between atoms: _339  and  _341
REMARK  137  A    between atoms: _341  and  _342
REMARK  138  A    between atoms: _345  and  _347
REMARK  139  A    between atoms: _347  and  _348
REMARK  140  A    between atoms: _351  and  _352
REMARK  141  A    between atoms: _357  and  _359
REMARK  142  A    between atoms: _359  and  _360
REMARK  143  A    between atoms: _359  and  _362
REMARK  144  A    between atoms: _362  and  _363
REMARK  145  A    between atoms: _366  and  _368
REMARK  146  A    between atoms: _368  and  _369
REMARK  147  A    between atoms: _368  and  _371
REMARK  148  A    between atoms: _371  and  _372
REMARK  149  A    between atoms: _382  and  _384
REMARK  150  A    between atoms: _384  and  _385
REMARK  151  A    between atoms: _384  and  _387
REMARK  152  A    between atoms: _387  and  _388
REMARK  153  A    between atoms: _394  and  _395
REMARK  154  A    between atoms: _400  and  _402
REMARK  155  A    between atoms: _402  and  _403
REMARK  156  A    between atoms: _402  and  _405
REMARK  157  A    between atoms: _405  and  _406
REMARK  158  A    between atoms: _409  and  _411
REMARK  159  A    between atoms: _411  and  _412
REMARK  160  A    between atoms: _411  and  _414
REMARK  161  A    between atoms: _414  and  _415
REMARK  162  A    between atoms: _417  and  _419
REMARK  163  A    between atoms: _419  and  _420
REMARK  164  A    between atoms: _419  and  _422
REMARK  165  A    between atoms: _422  and  _423
REMARK  166  A    between atoms: _428  and  _430
REMARK  167  A    between atoms: _430  and  _431
REMARK  168  A    between atoms: _430  and  _433
REMARK  169  A    between atoms: _436  and  _438
REMARK  170  A    between atoms: _438  and  _439
REMARK  171  A    between atoms: _438  and  _441
REMARK  172  A    between atoms: _441  and  _442
REMARK  173  A    between atoms: _442  and  _443
REMARK  174  A    between atoms: _449  and  _450
REMARK  175  A    between atoms: _455  and  _457
REMARK  176  A    between atoms: _457  and  _458
REMARK  177  A    between atoms: _457  and  _460
REMARK  178  A    between atoms: _460  and  _461
REMARK  179  A    between atoms: _464  and  _466
REMARK  180  A    between atoms: _466  and  _467
REMARK  181  A    between atoms: _466  and  _469
REMARK  182  A    between atoms: _469  and  _470
REMARK  183  A    between atoms: _473  and  _475
REMARK  184  A    between atoms: _475  and  _476
REMARK  185  A    between atoms: _475  and  _478
REMARK  186  A    between atoms: _478  and  _479
REMARK  187  A    between atoms: _481  and  _483
REMARK  188  A    between atoms: _483  and  _484
REMARK  189  A    between atoms: _483  and  _486
REMARK  190  A    between atoms: _486  and  _487
REMARK  191  A    between atoms: _492  and  _493
REMARK  192  A    between atoms: _495  and  _497
REMARK  193  A    between atoms: _497  and  _498
REMARK  194  A    between atoms: _497  and  _500
REMARK  195  A    between atoms: _500  and  _501
REMARK  196  A    between atoms: _506  and  _508
REMARK  197  A    between atoms: _508  and  _509
REMARK  198  A    between atoms: _508  and  _511
REMARK  199  A    between atoms: _511  and  _512
REMARK  200  A    between atoms: _515  and  _517
REMARK  201  A    between atoms: _517  and  _518
REMARK  202  A    between atoms: _517  and  _520
REMARK  203  A    between atoms: _520  and  _521
REMARK  204  A    between atoms: _531  and  _533
REMARK  205  A    between atoms: _533  and  _534
REMARK  206  A    between atoms: _536  and  _538
REMARK  207  A    between atoms: _538  and  _539
REMARK  208  A    between atoms: _538  and  _541
REMARK  209  A    between atoms: _541  and  _542
REMARK  210  A    between atoms: _547  and  _548
REMARK  211  A    between atoms: _550  and  _552
REMARK  212  A    between atoms: _552  and  _553
REMARK  213  A    between atoms: _552  and  _555
REMARK  214  A    between atoms: _555  and  _556
REMARK  215  A    between atoms: _556  and  _557
REMARK  216  A    between atoms: _557  and  _558
REMARK  217  A    between atoms: _567  and  _569
REMARK  218  A    between atoms: _569  and  _570
REMARK  219  A    between atoms: _569  and  _572
REMARK  220  A    between atoms: _572  and  _573
REMARK  221  A    between atoms: _573  and  _574
REMARK  222  A    between atoms: _574  and  _575
REMARK  223  A    between atoms: _575  and  _576
REMARK  224  A    between atoms: _580  and  _582
REMARK  225  A    between atoms: _582  and  _583
REMARK  226  A    between atoms: _585  and  _587
REMARK  227  A    between atoms: _587  and  _588
REMARK  228  A    between atoms: _591  and  _593
REMARK  229  A    between atoms: _593  and  _594
REMARK  230  A    between atoms: _593  and  _596
REMARK  231  A    between atoms: _596  and  _597
REMARK  232  A    between atoms: _602  and  _604
REMARK  233  A    between atoms: _604  and  _605
REMARK  234  A    between atoms: _608  and  _610
REMARK  235  A    between atoms: _610  and  _611
REMARK  236  A    between atoms: _614  and  _615
REMARK  237  A    between atoms: _620  and  _622
REMARK  238  A    between atoms: _622  and  _623
REMARK  239  A    between atoms: _622  and  _625
REMARK  240  A    between atoms: _625  and  _626
REMARK  241  A    between atoms: _629  and  _631
REMARK  242  A    between atoms: _631  and  _632
REMARK  243  A    between atoms: _631  and  _634
REMARK  244  A    between atoms: _634  and  _635
REMARK  245  A    between atoms: _645  and  _647
REMARK  246  A    between atoms: _647  and  _648
REMARK  247  A    between atoms: _647  and  _650
REMARK  248  A    between atoms: _650  and  _651
REMARK  249  A    between atoms: _657  and  _658
REMARK  250  A    between atoms: _663  and  _665
REMARK  251  A    between atoms: _665  and  _666
REMARK  252  A    between atoms: _665  and  _668
REMARK  253  A    between atoms: _668  and  _669
REMARK  254  A    between atoms: _672  and  _674
REMARK  255  A    between atoms: _674  and  _675
REMARK  256  A    between atoms: _674  and  _677
REMARK  257  A    between atoms: _677  and  _678
REMARK  258  A    between atoms: _678  and  _679
REMARK  259  A    between atoms: _682  and  _684
REMARK  260  A    between atoms: _684  and  _685
REMARK  261  A    between atoms: _684  and  _687
REMARK  262  A    between atoms: _687  and  _688
REMARK  263  A    between atoms: _688  and  _689
REMARK  264  A    between atoms: _689  and  _690
REMARK  265  A    between atoms: _690  and  _691
REMARK  266  A    between atoms: _695  and  _697
REMARK  267  A    between atoms: _697  and  _698
REMARK  268  A    between atoms: _700  and  _702
REMARK  269  A    between atoms: _702  and  _703
REMARK  270  A    between atoms: _702  and  _705
REMARK  271  A    between atoms: _705  and  _706
REMARK  272  A    between atoms: _711  and  _713
REMARK  273  A    between atoms: _713  and  _714
REMARK  274  A    between atoms: _713  and  _716
REMARK  275  A    between atoms: _716  and  _717
REMARK  276  A    between atoms: _717  and  _718
REMARK  277  A    between atoms: _718  and  _719
REMARK  278  A    between atoms: _728  and  _730
REMARK  279  A    between atoms: _730  and  _731
REMARK  280  A    between atoms: _730  and  _733
REMARK  281  A    between atoms: _733  and  _734
REMARK  282  A    between atoms: _737  and  _739
REMARK  283  A    between atoms: _739  and  _740
REMARK  284  A    between atoms: _739  and  _742
REMARK  285  A    between atoms: _745  and  _747
REMARK  286  A    between atoms: _747  and  _748
REMARK  287  A    between atoms: _747  and  _750
REMARK  288  A    between atoms: _750  and  _751
REMARK  289  A    between atoms: _751  and  _752
REMARK  290  A    between atoms: _758  and  _759
REMARK  291  A    between atoms: _764  and  _766
REMARK  292  A    between atoms: _766  and  _767
REMARK  293  A    between atoms: _766  and  _769
REMARK  294  A    between atoms: _769  and  _770
REMARK  295  A    between atoms: _773  and  _775
REMARK  296  A    between atoms: _775  and  _776
REMARK  297  A    between atoms: _775  and  _778
REMARK  298  A    between atoms: _778  and  _779
REMARK  299  A    between atoms: _782  and  _784
REMARK  300  A    between atoms: _784  and  _785
REMARK  301  A    between atoms: _784  and  _787
REMARK  302  A    between atoms: _787  and  _788
REMARK  303  A    between atoms: _790  and  _792
REMARK  304  A    between atoms: _792  and  _793
REMARK  305  A    between atoms: _792  and  _795
REMARK  306  A    between atoms: _795  and  _796
REMARK  307  A    between atoms: _796  and  _797
REMARK  308  A    between atoms: _797  and  _798
REMARK  309  A    between atoms: _807  and  _809
REMARK  310  A    between atoms: _809  and  _810
REMARK                            x       y       z     vdW  Elec       q    Type
REMARK                         _______ _______ _______ _____ _____    ______ ____
ROOT
ATOM      1  O   HOH     1     -34.165 -29.205 -28.722  0.00  0.00    +0.000 OA
ENDROOT
TORSDOF 0
REMARK  Name = ../refined-set-2016/3rt4/3rt4_pocket.pdb
REMARK  310 active torsions:
REMARK  status: ('A' for Active; 'I' for Inactive)
REMARK    1  A    between atoms: _1  and  _3
REMARK    2  A    between atoms: _3  and  _4
REMARK    3  A    between atoms: _3  and  _6
REMARK    4  A    between atoms: _6  and  _7
REMARK    5  A    between atoms: _7  and  _8
REMARK    6  A    between atoms: _8  and  _9
REMARK    7  A    between atoms: _18  and  _20
REMARK    8  A    between atoms: _20  and  _21
REMARK    9  A    between atoms: _20  and  _23
REMARK   10  A    between atoms: _26  and  _28
REMARK   11  A    between atoms: _28  and  _29
REMARK   12  A    between atoms: _28  and  _31
REMARK   13  A    between atoms: _31  and  _32
REMARK   14  A    between atoms: _32  and  _33
REMARK   15  A    between atoms: _33  and  _34
REMARK   16  A    between atoms: _43  and  _45
REMARK   17  A    between atoms: _45  and  _46
REMARK   18  A    between atoms: _45  and  _48
REMARK   19  A    between atoms: _48  and  _49
REMARK   20  A    between atoms: _51  and  _53
REMARK   21  A    between atoms: _53  and  _54
REMARK   22  A    between atoms: _53  and  _56
REMARK   23  A    between atoms: _56  and  _57
REMARK   24  A    between atoms: _62  and  _64
REMARK   25  A    between atoms: _64  and  _65
REMARK   26  A    between atoms: _64  and  _67
REMARK   27  A    between atoms: _67  and  _68
REMARK   28  A    between atoms: _73  and  _74
REMARK   29  A    between atoms: _76  and  _78
REMARK   30  A    between atoms: _78  and  _79
REMARK   31  A    between atoms: _78  and  _81
REMARK   32  A    between atoms: _81  and  _82
REMARK   33  A    between atoms: _82  and  _83
REMARK   34  A    between atoms: _86  and  _88
REMARK   35  A    between atoms: _88  and  _89
REMARK   36  A    between atoms: _88  and  _91
REMARK   37  A    between atoms: _91  and  _92
REMARK   38  A    between atoms: _92  and  _93
REMARK   39  A    between atoms: _93  and  _94
REMARK   40  A    between atoms: _94  and  _95
REMARK   41  A    between atoms: _99  and  _101
REMARK   42  A    between atoms: _101  and  _102
REMARK   43  A    between atoms: _101  and  _104
REMARK   44  A    between atoms: _104  and  _105
REMARK   45  A    between atoms: _110  and  _111
REMARK   46  A    between atoms: _113  and  _115
REMARK   47  A    between atoms: _115  and  _116
REMARK   48  A    between atoms: _115  and  _118
REMARK   49  A    between atoms: _118  and  _119
REMARK   50  A    between atoms: _119  and  _120
REMARK   51  A    between atoms: _120  and  _121
REMARK   52  A    between atoms: _130  and  _132
REMARK   53  A    between atoms: _132  and  _133
REMARK   54  A    between atoms: _136  and  _138
REMARK   55  A    between atoms: _138  and  _139
REMARK   56  A    between atoms: _138  and  _141
REMARK   57  A    between atoms: _141  and  _142
REMARK   58  A    between atoms: _142  and  _258
REMARK   59  A    between atoms: _143  and  _145
REMARK   60  A    between atoms: _145  and  _146
REMARK   61  A    between atoms: _145  and  _148
REMARK   62  A    between atoms: _148  and  _149
REMARK   63  A    between atoms: _149  and  _150
REMARK   64  A    between atoms: _153  and  _155
REMARK   65  A    between atoms: _155  and  _156
REMARK   66  A    between atoms: _155  and  _158
REMARK   67  A    between atoms: _158  and  _159
REMARK   68  A    between atoms: _161  and  _163
REMARK   69  A    between atoms: _163  and  _164
REMARK   70  A    between atoms: _163  and  _166
REMARK   71  A    between atoms: _166  and  _167
REMARK   72  A    between atoms: _172  and  _173
REMARK   73  A    between atoms: _175  and  _177
REMARK   74  A    between atoms: _177  and  _178
REMARK   75  A    between atoms: _177  and  _180
REMARK   76  A    between atoms: _180  and  _181
REMARK   77  A    between atoms: _186  and  _188
REMARK   78  A    between atoms: _188  and  _189
REMARK   79  A    between atoms: _188  and  _191
REMARK   80  A    between atoms: _194  and  _196
REMARK   81  A    between atoms: _196  and  _197
REMARK   82  A    between atoms: _196  and  _199
REMARK   83  A    between atoms: _199  and  _200
REMARK   84  A    between atoms: _200  and  _201
REMARK   85  A    between atoms: _201  and  _202
REMARK   86  A    between atoms: _211  and  _213
REMARK   87  A    between atoms: _213  and  _214
REMARK   88  A    between atoms: _213  and  _216
REMARK   89  A    between atoms: _216  and  _217
REMARK   90  A    between atoms: _222  and  _224
REMARK   91  A    between atoms: _224  and  _225
REMARK   92  A    between atoms: _224  and  _227
REMARK   93  A    between atoms: _227  and  _228
REMARK   94  A    between atoms: _231  and  _233
REMARK   95  A    between atoms: _233  and  _234
REMARK   96  A    between atoms: _236  and  _238
REMARK   97  A    between atoms: _238  and  _239
REMARK   98  A    between atoms: _238  and  _241
REMARK   99  A    between atoms: _241  and  _242
REMARK  100  A    between atoms: _252  and  _254
REMARK  101  A    between atoms: _254  and  _255
REMARK  102  A    between atoms: _254  and  _257
REMARK  103  A    between atoms: _257  and  _258
REMARK  104  A    between atoms: _259  and  _261
REMARK  105  A    between atoms: _261  and  _262
REMARK  106  A    between atoms: _261  and  _264
REMARK  107  A    between atoms: _264  and  _265
REMARK  108  A    between atoms: _268  and  _270
REMARK  109  A    between atoms: _270  and  _271
REMARK  110  A    between atoms: _273  and  _275
REMARK  111  A    between atoms: _275  and  _276
REMARK  112  A    between atoms: _275  and  _278
REMARK  113  A    between atoms: _278  and  _279
REMARK  114  A    between atoms: _284  and  _285
REMARK  115  A    between atoms: _287  and  _289
REMARK  116  A    between atoms: _289  and  _290
REMARK  117  A    between atoms: _289  and  _292
REMARK  118  A    between atoms: _292  and  _293
REMARK  119  A    between atoms: _293  and  _294
REMARK  120  A    between atoms: _294  and  _295
REMARK  121  A    between atoms: _304  and  _306
REMARK  122  A    between atoms: _306  and  _307
REMARK  123  A    between atoms: _306  and  _309
REMARK  124  A    between atoms: _309  and  _310
REMARK  125  A    between atoms: _310  and  _311
REMARK  126  A    between atoms: _311  and  _312
REMARK  127  A    between atoms: _312  and  _313
REMARK  128  A    between atoms: _317  and  _319
REMARK  129  A    between atoms: _319  and  _320
REMARK  130  A    between atoms: _322  and  _324
REMARK  131  A    between atoms: _324  and  _325
REMARK  132  A    between atoms: _328  and  _330
REMARK  133  A    between atoms: _330  and  _331
REMARK  134  A    between atoms: _330  and  _333
REMARK  135  A    between atoms: _333  and  _334
REMARK  136  A    between atoms: _339  and  _341
REMARK  137  A    between atoms: _341  and  _342
REMARK  138  A    between atoms: _345  and  _347
REMARK  139  A    between atoms: _347  and  _348
REMARK  140  A    between atoms: _351  and  _352
REMARK  141  A    between atoms: _357  and  _359
REMARK  142  A    between atoms: _359  and  _360
REMARK  143  A    between atoms: _359  and  _362
REMARK  144  A    between atoms: _362  and  _363
REMARK  145  A    between atoms: _366  and  _368
REMARK  146  A    between atoms: _368  and  _369
REMARK  147  A    between atoms: _368  and  _371
REMARK  148  A    between atoms: _371  and  _372
REMARK  149  A    between atoms: _382  and  _384
REMARK  150  A    between atoms: _384  and  _385
REMARK  151  A    between atoms: _384  and  _387
REMARK  152  A    between atoms: _387  and  _388
REMARK  153  A    between atoms: _394  and  _395
REMARK  154  A    between atoms: _400  and  _402
REMARK  155  A    between atoms: _402  and  _403
REMARK  156  A    between atoms: _402  and  _405
REMARK  157  A    between atoms: _405  and  _406
REMARK  158  A    between atoms: _409  and  _411
REMARK  159  A    between atoms: _411  and  _412
REMARK  160  A    between atoms: _411  and  _414
REMARK  161  A    between atoms: _414  and  _415
REMARK  162  A    between atoms: _417  and  _419
REMARK  163  A    between atoms: _419  and  _420
REMARK  164  A    between atoms: _419  and  _422
REMARK  165  A    between atoms: _422  and  _423
REMARK  166  A    between atoms: _428  and  _430
REMARK  167  A    between atoms: _430  and  _431
REMARK  168  A    between atoms: _430  and  _433
REMARK  169  A    between atoms: _436  and  _438
REMARK  170  A    between atoms: _438  and  _439
REMARK  171  A    between atoms: _438  and  _441
REMARK  172  A    between atoms: _441  and  _442
REMARK  173  A    between atoms: _442  and  _443
REMARK  174  A    between atoms: _449  and  _450
REMARK  175  A    between atoms: _455  and  _457
REMARK  176  A    between atoms: _457  and  _458
REMARK  177  A    between atoms: _457  and  _460
REMARK  178  A    between atoms: _460  and  _461
REMARK  179  A    between atoms: _464  and  _466
REMARK  180  A    between atoms: _466  and  _467
REMARK  181  A    between atoms: _466  and  _469
REMARK  182  A    between atoms: _469  and  _470
REMARK  183  A    between atoms: _473  and  _475
REMARK  184  A    between atoms: _475  and  _476
REMARK  185  A    between atoms: _475  and  _478
REMARK  186  A    between atoms: _478  and  _479
REMARK  187  A    between atoms: _481  and  _483
REMARK  188  A    between atoms: _483  and  _484
REMARK  189  A    between atoms: _483  and  _486
REMARK  190  A    between atoms: _486  and  _487
REMARK  191  A    between atoms: _492  and  _493
REMARK  192  A    between atoms: _495  and  _497
REMARK  193  A    between atoms: _497  and  _498
REMARK  194  A    between atoms: _497  and  _500
REMARK  195  A    between atoms: _500  and  _501
REMARK  196  A    between atoms: _506  and  _508
REMARK  197  A    between atoms: _508  and  _509
REMARK  198  A    between atoms: _508  and  _511
REMARK  199  A    between atoms: _511  and  _512
REMARK  200  A    between atoms: _515  and  _517
REMARK  201  A    between atoms: _517  and  _518
REMARK  202  A    between atoms: _517  and  _520
REMARK  203  A    between atoms: _520  and  _521
REMARK  204  A    between atoms: _531  and  _533
REMARK  205  A    between atoms: _533  and  _534
REMARK  206  A    between atoms: _536  and  _538
REMARK  207  A    between atoms: _538  and  _539
REMARK  208  A    between atoms: _538  and  _541
REMARK  209  A    between atoms: _541  and  _542
REMARK  210  A    between atoms: _547  and  _548
REMARK  211  A    between atoms: _550  and  _552
REMARK  212  A    between atoms: _552  and  _553
REMARK  213  A    between atoms: _552  and  _555
REMARK  214  A    between atoms: _555  and  _556
REMARK  215  A    between atoms: _556  and  _557
REMARK  216  A    between atoms: _557  and  _558
REMARK  217  A    between atoms: _567  and  _569
REMARK  218  A    between atoms: _569  and  _570
REMARK  219  A    between atoms: _569  and  _572
REMARK  220  A    between atoms: _572  and  _573
REMARK  221  A    between atoms: _573  and  _574
REMARK  222  A    between atoms: _574  and  _575
REMARK  223  A    between atoms: _575  and  _576
REMARK  224  A    between atoms: _580  and  _582
REMARK  225  A    between atoms: _582  and  _583
REMARK  226  A    between atoms: _585  and  _587
REMARK  227  A    between atoms: _587  and  _588
REMARK  228  A    between atoms: _591  and  _593
REMARK  229  A    between atoms: _593  and  _594
REMARK  230  A    between atoms: _593  and  _596
REMARK  231  A    between atoms: _596  and  _597
REMARK  232  A    between atoms: _602  and  _604
REMARK  233  A    between atoms: _604  and  _605
REMARK  234  A    between atoms: _608  and  _610
REMARK  235  A    between atoms: _610  and  _611
REMARK  236  A    between atoms: _614  and  _615
REMARK  237  A    between atoms: _620  and  _622
REMARK  238  A    between atoms: _622  and  _623
REMARK  239  A    between atoms: _622  and  _625
REMARK  240  A    between atoms: _625  and  _626
REMARK  241  A    between atoms: _629  and  _631
REMARK  242  A    between atoms: _631  and  _632
REMARK  243  A    between atoms: _631  and  _634
REMARK  244  A    between atoms: _634  and  _635
REMARK  245  A    between atoms: _645  and  _647
REMARK  246  A    between atoms: _647  and  _648
REMARK  247  A    between atoms: _647  and  _650
REMARK  248  A    between atoms: _650  and  _651
REMARK  249  A    between atoms: _657  and  _658
REMARK  250  A    between atoms: _663  and  _665
REMARK  251  A    between atoms: _665  and  _666
REMARK  252  A    between atoms: _665  and  _668
REMARK  253  A    between atoms: _668  and  _669
REMARK  254  A    between atoms: _672  and  _674
REMARK  255  A    between atoms: _674  and  _675
REMARK  256  A    between atoms: _674  and  _677
REMARK  257  A    between atoms: _677  and  _678
REMARK  258  A    between atoms: _678  and  _679
REMARK  259  A    between atoms: _682  and  _684
REMARK  260  A    between atoms: _684  and  _685
REMARK  261  A    between atoms: _684  and  _687
REMARK  262  A    between atoms: _687  and  _688
REMARK  263  A    between atoms: _688  and  _689
REMARK  264  A    between atoms: _689  and  _690
REMARK  265  A    between atoms: _690  and  _691
REMARK  266  A    between atoms: _695  and  _697
REMARK  267  A    between atoms: _697  and  _698
REMARK  268  A    between atoms: _700  and  _702
REMARK  269  A    between atoms: _702  and  _703
REMARK  270  A    between atoms: _702  and  _705
REMARK  271  A    between atoms: _705  and  _706
REMARK  272  A    between atoms: _711  and  _713
REMARK  273  A    between atoms: _713  and  _714
REMARK  274  A    between atoms: _713  and  _716
REMARK  275  A    between atoms: _716  and  _717
REMARK  276  A    between atoms: _717  and  _718
REMARK  277  A    between atoms: _718  and  _719
REMARK  278  A    between atoms: _728  and  _730
REMARK  279  A    between atoms: _730  and  _731
REMARK  280  A    between atoms: _730  and  _733
REMARK  281  A    between atoms: _733  and  _734
REMARK  282  A    between atoms: _737  and  _739
REMARK  283  A    between atoms: _739  and  _740
REMARK  284  A    between atoms: _739  and  _742
REMARK  285  A    between atoms: _745  and  _747
REMARK  286  A    between atoms: _747  and  _748
REMARK  287  A    between atoms: _747  and  _750
REMARK  288  A    between atoms: _750  and  _751
REMARK  289  A    between atoms: _751  and  _752
REMARK  290  A    between atoms: _758  and  _759
REMARK  291  A    between atoms: _764  and  _766
REMARK  292  A    between atoms: _766  and  _767
REMARK  293  A    between atoms: _766  and  _769
REMARK  294  A    between atoms: _769  and  _770
REMARK  295  A    between atoms: _773  and  _775
REMARK  296  A    between atoms: _775  and  _776
REMARK  297  A    between atoms: _775  and  _778
REMARK  298  A    between atoms: _778  and  _779
REMARK  299  A    between atoms: _782  and  _784
REMARK  300  A    between atoms: _784  and  _785
REMARK  301  A    between atoms: _784  and  _787
REMARK  302  A    between atoms: _787  and  _788
REMARK  303  A    between atoms: _790  and  _792
REMARK  304  A    between atoms: _792  and  _793
REMARK  305  A    between atoms: _792  and  _795
REMARK  306  A    between atoms: _795  and  _796
REMARK  307  A    between atoms: _796  and  _797
REMARK  308  A    between atoms: _797  and  _798
REMARK  309  A    between atoms: _807  and  _809
REMARK  310  A    between atoms: _809  and  _810
REMARK                            x       y       z     vdW  Elec       q    Type
REMARK                         _______ _______ _______ _____ _____    ______ ____
ROOT
ATOM      1  O   HOH     1     -28.634 -32.809 -25.605  0.00  0.00    +0.000 OA
ENDROOT
TORSDOF 0
REMARK  Name = ../refined-set-2016/3rt4/3rt4_pocket.pdb
REMARK  310 active torsions:
REMARK  status: ('A' for Active; 'I' for Inactive)
REMARK    1  A    between atoms: _1  and  _3
REMARK    2  A    between atoms: _3  and  _4
REMARK    3  A    between atoms: _3  and  _6
REMARK    4  A    between atoms: _6  and  _7
REMARK    5  A    between atoms: _7  and  _8
REMARK    6  A    between atoms: _8  and  _9
REMARK    7  A    between atoms: _18  and  _20
REMARK    8  A    between atoms: _20  and  _21
REMARK    9  A    between atoms: _20  and  _23
REMARK   10  A    between atoms: _26  and  _28
REMARK   11  A    between atoms: _28  and  _29
REMARK   12  A    between atoms: _28  and  _31
REMARK   13  A    between atoms: _31  and  _32
REMARK   14  A    between atoms: _32  and  _33
REMARK   15  A    between atoms: _33  and  _34
REMARK   16  A    between atoms: _43  and  _45
REMARK   17  A    between atoms: _45  and  _46
REMARK   18  A    between atoms: _45  and  _48
REMARK   19  A    between atoms: _48  and  _49
REMARK   20  A    between atoms: _51  and  _53
REMARK   21  A    between atoms: _53  and  _54
REMARK   22  A    between atoms: _53  and  _56
REMARK   23  A    between atoms: _56  and  _57
REMARK   24  A    between atoms: _62  and  _64
REMARK   25  A    between atoms: _64  and  _65
REMARK   26  A    between atoms: _64  and  _67
REMARK   27  A    between atoms: _67  and  _68
REMARK   28  A    between atoms: _73  and  _74
REMARK   29  A    between atoms: _76  and  _78
REMARK   30  A    between atoms: _78  and  _79
REMARK   31  A    between atoms: _78  and  _81
REMARK   32  A    between atoms: _81  and  _82
REMARK   33  A    between atoms: _82  and  _83
REMARK   34  A    between atoms: _86  and  _88
REMARK   35  A    between atoms: _88  and  _89
REMARK   36  A    between atoms: _88  and  _91
REMARK   37  A    between atoms: _91  and  _92
REMARK   38  A    between atoms: _92  and  _93
REMARK   39  A    between atoms: _93  and  _94
REMARK   40  A    between atoms: _94  and  _95
REMARK   41  A    between atoms: _99  and  _101
REMARK   42  A    between atoms: _101  and  _102
REMARK   43  A    between atoms: _101  and  _104
REMARK   44  A    between atoms: _104  and  _105
REMARK   45  A    between atoms: _110  and  _111
REMARK   46  A    between atoms: _113  and  _115
REMARK   47  A    between atoms: _115  and  _116
REMARK   48  A    between atoms: _115  and  _118
REMARK   49  A    between atoms: _118  and  _119
REMARK   50  A    between atoms: _119  and  _120
REMARK   51  A    between atoms: _120  and  _121
REMARK   52  A    between atoms: _130  and  _132
REMARK   53  A    between atoms: _132  and  _133
REMARK   54  A    between atoms: _136  and  _138
REMARK   55  A    between atoms: _138  and  _139
REMARK   56  A    between atoms: _138  and  _141
REMARK   57  A    between atoms: _141  and  _142
REMARK   58  A    between atoms: _142  and  _258
REMARK   59  A    between atoms: _143  and  _145
REMARK   60  A    between atoms: _145  and  _146
REMARK   61  A    between atoms: _145  and  _148
REMARK   62  A    between atoms: _148  and  _149
REMARK   63  A    between atoms: _149  and  _150
REMARK   64  A    between atoms: _153  and  _155
REMARK   65  A    between atoms: _155  and  _156
REMARK   66  A    between atoms: _155  and  _158
REMARK   67  A    between atoms: _158  and  _159
REMARK   68  A    between atoms: _161  and  _163
REMARK   69  A    between atoms: _163  and  _164
REMARK   70  A    between atoms: _163  and  _166
REMARK   71  A    between atoms: _166  and  _167
REMARK   72  A    between atoms: _172  and  _173
REMARK   73  A    between atoms: _175  and  _177
REMARK   74  A    between atoms: _177  and  _178
REMARK   75  A    between atoms: _177  and  _180
REMARK   76  A    between atoms: _180  and  _181
REMARK   77  A    between atoms: _186  and  _188
REMARK   78  A    between atoms: _188  and  _189
REMARK   79  A    between atoms: _188  and  _191
REMARK   80  A    between atoms: _194  and  _196
REMARK   81  A    between atoms: _196  and  _197
REMARK   82  A    between atoms: _196  and  _199
REMARK   83  A    between atoms: _199  and  _200
REMARK   84  A    between atoms: _200  and  _201
REMARK   85  A    between atoms: _201  and  _202
REMARK   86  A    between atoms: _211  and  _213
REMARK   87  A    between atoms: _213  and  _214
REMARK   88  A    between atoms: _213  and  _216
REMARK   89  A    between atoms: _216  and  _217
REMARK   90  A    between atoms: _222  and  _224
REMARK   91  A    between atoms: _224  and  _225
REMARK   92  A    between atoms: _224  and  _227
REMARK   93  A    between atoms: _227  and  _228
REMARK   94  A    between atoms: _231  and  _233
REMARK   95  A    between atoms: _233  and  _234
REMARK   96  A    between atoms: _236  and  _238
REMARK   97  A    between atoms: _238  and  _239
REMARK   98  A    between atoms: _238  and  _241
REMARK   99  A    between atoms: _241  and  _242
REMARK  100  A    between atoms: _252  and  _254
REMARK  101  A    between atoms: _254  and  _255
REMARK  102  A    between atoms: _254  and  _257
REMARK  103  A    between atoms: _257  and  _258
REMARK  104  A    between atoms: _259  and  _261
REMARK  105  A    between atoms: _261  and  _262
REMARK  106  A    between atoms: _261  and  _264
REMARK  107  A    between atoms: _264  and  _265
REMARK  108  A    between atoms: _268  and  _270
REMARK  109  A    between atoms: _270  and  _271
REMARK  110  A    between atoms: _273  and  _275
REMARK  111  A    between atoms: _275  and  _276
REMARK  112  A    between atoms: _275  and  _278
REMARK  113  A    between atoms: _278  and  _279
REMARK  114  A    between atoms: _284  and  _285
REMARK  115  A    between atoms: _287  and  _289
REMARK  116  A    between atoms: _289  and  _290
REMARK  117  A    between atoms: _289  and  _292
REMARK  118  A    between atoms: _292  and  _293
REMARK  119  A    between atoms: _293  and  _294
REMARK  120  A    between atoms: _294  and  _295
REMARK  121  A    between atoms: _304  and  _306
REMARK  122  A    between atoms: _306  and  _307
REMARK  123  A    between atoms: _306  and  _309
REMARK  124  A    between atoms: _309  and  _310
REMARK  125  A    between atoms: _310  and  _311
REMARK  126  A    between atoms: _311  and  _312
REMARK  127  A    between atoms: _312  and  _313
REMARK  128  A    between atoms: _317  and  _319
REMARK  129  A    between atoms: _319  and  _320
REMARK  130  A    between atoms: _322  and  _324
REMARK  131  A    between atoms: _324  and  _325
REMARK  132  A    between atoms: _328  and  _330
REMARK  133  A    between atoms: _330  and  _331
REMARK  134  A    between atoms: _330  and  _333
REMARK  135  A    between atoms: _333  and  _334
REMARK  136  A    between atoms: _339  and  _341
REMARK  137  A    between atoms: _341  and  _342
REMARK  138  A    between atoms: _345  and  _347
REMARK  139  A    between atoms: _347  and  _348
REMARK  140  A    between atoms: _351  and  _352
REMARK  141  A    between atoms: _357  and  _359
REMARK  142  A    between atoms: _359  and  _360
REMARK  143  A    between atoms: _359  and  _362
REMARK  144  A    between atoms: _362  and  _363
REMARK  145  A    between atoms: _366  and  _368
REMARK  146  A    between atoms: _368  and  _369
REMARK  147  A    between atoms: _368  and  _371
REMARK  148  A    between atoms: _371  and  _372
REMARK  149  A    between atoms: _382  and  _384
REMARK  150  A    between atoms: _384  and  _385
REMARK  151  A    between atoms: _384  and  _387
REMARK  152  A    between atoms: _387  and  _388
REMARK  153  A    between atoms: _394  and  _395
REMARK  154  A    between atoms: _400  and  _402
REMARK  155  A    between atoms: _402  and  _403
REMARK  156  A    between atoms: _402  and  _405
REMARK  157  A    between atoms: _405  and  _406
REMARK  158  A    between atoms: _409  and  _411
REMARK  159  A    between atoms: _411  and  _412
REMARK  160  A    between atoms: _411  and  _414
REMARK  161  A    between atoms: _414  and  _415
REMARK  162  A    between atoms: _417  and  _419
REMARK  163  A    between atoms: _419  and  _420
REMARK  164  A    between atoms: _419  and  _422
REMARK  165  A    between atoms: _422  and  _423
REMARK  166  A    between atoms: _428  and  _430
REMARK  167  A    between atoms: _430  and  _431
REMARK  168  A    between atoms: _430  and  _433
REMARK  169  A    between atoms: _436  and  _438
REMARK  170  A    between atoms: _438  and  _439
REMARK  171  A    between atoms: _438  and  _441
REMARK  172  A    between atoms: _441  and  _442
REMARK  173  A    between atoms: _442  and  _443
REMARK  174  A    between atoms: _449  and  _450
REMARK  175  A    between atoms: _455  and  _457
REMARK  176  A    between atoms: _457  and  _458
REMARK  177  A    between atoms: _457  and  _460
REMARK  178  A    between atoms: _460  and  _461
REMARK  179  A    between atoms: _464  and  _466
REMARK  180  A    between atoms: _466  and  _467
REMARK  181  A    between atoms: _466  and  _469
REMARK  182  A    between atoms: _469  and  _470
REMARK  183  A    between atoms: _473  and  _475
REMARK  184  A    between atoms: _475  and  _476
REMARK  185  A    between atoms: _475  and  _478
REMARK  186  A    between atoms: _478  and  _479
REMARK  187  A    between atoms: _481  and  _483
REMARK  188  A    between atoms: _483  and  _484
REMARK  189  A    between atoms: _483  and  _486
REMARK  190  A    between atoms: _486  and  _487
REMARK  191  A    between atoms: _492  and  _493
REMARK  192  A    between atoms: _495  and  _497
REMARK  193  A    between atoms: _497  and  _498
REMARK  194  A    between atoms: _497  and  _500
REMARK  195  A    between atoms: _500  and  _501
REMARK  196  A    between atoms: _506  and  _508
REMARK  197  A    between atoms: _508  and  _509
REMARK  198  A    between atoms: _508  and  _511
REMARK  199  A    between atoms: _511  and  _512
REMARK  200  A    between atoms: _515  and  _517
REMARK  201  A    between atoms: _517  and  _518
REMARK  202  A    between atoms: _517  and  _520
REMARK  203  A    between atoms: _520  and  _521
REMARK  204  A    between atoms: _531  and  _533
REMARK  205  A    between atoms: _533  and  _534
REMARK  206  A    between atoms: _536  and  _538
REMARK  207  A    between atoms: _538  and  _539
REMARK  208  A    between atoms: _538  and  _541
REMARK  209  A    between atoms: _541  and  _542
REMARK  210  A    between atoms: _547  and  _548
REMARK  211  A    between atoms: _550  and  _552
REMARK  212  A    between atoms: _552  and  _553
REMARK  213  A    between atoms: _552  and  _555
REMARK  214  A    between atoms: _555  and  _556
REMARK  215  A    between atoms: _556  and  _557
REMARK  216  A    between atoms: _557  and  _558
REMARK  217  A    between atoms: _567  and  _569
REMARK  218  A    between atoms: _569  and  _570
REMARK  219  A    between atoms: _569  and  _572
REMARK  220  A    between atoms: _572  and  _573
REMARK  221  A    between atoms: _573  and  _574
REMARK  222  A    between atoms: _574  and  _575
REMARK  223  A    between atoms: _575  and  _576
REMARK  224  A    between atoms: _580  and  _582
REMARK  225  A    between atoms: _582  and  _583
REMARK  226  A    between atoms: _585  and  _587
REMARK  227  A    between atoms: _587  and  _588
REMARK  228  A    between atoms: _591  and  _593
REMARK  229  A    between atoms: _593  and  _594
REMARK  230  A    between atoms: _593  and  _596
REMARK  231  A    between atoms: _596  and  _597
REMARK  232  A    between atoms: _602  and  _604
REMARK  233  A    between atoms: _604  and  _605
REMARK  234  A    between atoms: _608  and  _610
REMARK  235  A    between atoms: _610  and  _611
REMARK  236  A    between atoms: _614  and  _615
REMARK  237  A    between atoms: _620  and  _622
REMARK  238  A    between atoms: _622  and  _623
REMARK  239  A    between atoms: _622  and  _625
REMARK  240  A    between atoms: _625  and  _626
REMARK  241  A    between atoms: _629  and  _631
REMARK  242  A    between atoms: _631  and  _632
REMARK  243  A    between atoms: _631  and  _634
REMARK  244  A    between atoms: _634  and  _635
REMARK  245  A    between atoms: _645  and  _647
REMARK  246  A    between atoms: _647  and  _648
REMARK  247  A    between atoms: _647  and  _650
REMARK  248  A    between atoms: _650  and  _651
REMARK  249  A    between atoms: _657  and  _658
REMARK  250  A    between atoms: _663  and  _665
REMARK  251  A    between atoms: _665  and  _666
REMARK  252  A    between atoms: _665  and  _668
REMARK  253  A    between atoms: _668  and  _669
REMARK  254  A    between atoms: _672  and  _674
REMARK  255  A    between atoms: _674  and  _675
REMARK  256  A    between atoms: _674  and  _677
REMARK  257  A    between atoms: _677  and  _678
REMARK  258  A    between atoms: _678  and  _679
REMARK  259  A    between atoms: _682  and  _684
REMARK  260  A    between atoms: _684  and  _685
REMARK  261  A    between atoms: _684  and  _687
REMARK  262  A    between atoms: _687  and  _688
REMARK  263  A    between atoms: _688  and  _689
REMARK  264  A    between atoms: _689  and  _690
REMARK  265  A    between atoms: _690  and  _691
REMARK  266  A    between atoms: _695  and  _697
REMARK  267  A    between atoms: _697  and  _698
REMARK  268  A    between atoms: _700  and  _702
REMARK  269  A    between atoms: _702  and  _703
REMARK  270  A    between atoms: _702  and  _705
REMARK  271  A    between atoms: _705  and  _706
REMARK  272  A    between atoms: _711  and  _713
REMARK  273  A    between atoms: _713  and  _714
REMARK  274  A    between atoms: _713  and  _716
REMARK  275  A    between atoms: _716  and  _717
REMARK  276  A    between atoms: _717  and  _718
REMARK  277  A    between atoms: _718  and  _719
REMARK  278  A    between atoms: _728  and  _730
REMARK  279  A    between atoms: _730  and  _731
REMARK  280  A    between atoms: _730  and  _733
REMARK  281  A    between atoms: _733  and  _734
REMARK  282  A    between atoms: _737  and  _739
REMARK  283  A    between atoms: _739  and  _740
REMARK  284  A    between atoms: _739  and  _742
REMARK  285  A    between atoms: _745  and  _747
REMARK  286  A    between atoms: _747  and  _748
REMARK  287  A    between atoms: _747  and  _750
REMARK  288  A    between atoms: _750  and  _751
REMARK  289  A    between atoms: _751  and  _752
REMARK  290  A    between atoms: _758  and  _759
REMARK  291  A    between atoms: _764  and  _766
REMARK  292  A    between atoms: _766  and  _767
REMARK  293  A    between atoms: _766  and  _769
REMARK  294  A    between atoms: _769  and  _770
REMARK  295  A    between atoms: _773  and  _775
REMARK  296  A    between atoms: _775  and  _776
REMARK  297  A    between atoms: _775  and  _778
REMARK  298  A    between atoms: _778  and  _779
REMARK  299  A    between atoms: _782  and  _784
REMARK  300  A    between atoms: _784  and  _785
REMARK  301  A    between atoms: _784  and  _787
REMARK  302  A    between atoms: _787  and  _788
REMARK  303  A    between atoms: _790  and  _792
REMARK  304  A    between atoms: _792  and  _793
REMARK  305  A    between atoms: _792  and  _795
REMARK  306  A    between atoms: _795  and  _796
REMARK  307  A    between atoms: _796  and  _797
REMARK  308  A    between atoms: _797  and  _798
REMARK  309  A    between atoms: _807  and  _809
REMARK  310  A    between atoms: _809  and  _810
REMARK                            x       y       z     vdW  Elec       q    Type
REMARK                         _______ _______ _______ _____ _____    ______ ____
ROOT
ATOM      1  O   HOH     1     -19.038 -25.970 -28.486  0.00  0.00    +0.000 OA
ENDROOT
TORSDOF 0
REMARK  Name = ../refined-set-2016/3rt4/3rt4_pocket.pdb
REMARK  310 active torsions:
REMARK  status: ('A' for Active; 'I' for Inactive)
REMARK    1  A    between atoms: _1  and  _3
REMARK    2  A    between atoms: _3  and  _4
REMARK    3  A    between atoms: _3  and  _6
REMARK    4  A    between atoms: _6  and  _7
REMARK    5  A    between atoms: _7  and  _8
REMARK    6  A    between atoms: _8  and  _9
REMARK    7  A    between atoms: _18  and  _20
REMARK    8  A    between atoms: _20  and  _21
REMARK    9  A    between atoms: _20  and  _23
REMARK   10  A    between atoms: _26  and  _28
REMARK   11  A    between atoms: _28  and  _29
REMARK   12  A    between atoms: _28  and  _31
REMARK   13  A    between atoms: _31  and  _32
REMARK   14  A    between atoms: _32  and  _33
REMARK   15  A    between atoms: _33  and  _34
REMARK   16  A    between atoms: _43  and  _45
REMARK   17  A    between atoms: _45  and  _46
REMARK   18  A    between atoms: _45  and  _48
REMARK   19  A    between atoms: _48  and  _49
REMARK   20  A    between atoms: _51  and  _53
REMARK   21  A    between atoms: _53  and  _54
REMARK   22  A    between atoms: _53  and  _56
REMARK   23  A    between atoms: _56  and  _57
REMARK   24  A    between atoms: _62  and  _64
REMARK   25  A    between atoms: _64  and  _65
REMARK   26  A    between atoms: _64  and  _67
REMARK   27  A    between atoms: _67  and  _68
REMARK   28  A    between atoms: _73  and  _74
REMARK   29  A    between atoms: _76  and  _78
REMARK   30  A    between atoms: _78  and  _79
REMARK   31  A    between atoms: _78  and  _81
REMARK   32  A    between atoms: _81  and  _82
REMARK   33  A    between atoms: _82  and  _83
REMARK   34  A    between atoms: _86  and  _88
REMARK   35  A    between atoms: _88  and  _89
REMARK   36  A    between atoms: _88  and  _91
REMARK   37  A    between atoms: _91  and  _92
REMARK   38  A    between atoms: _92  and  _93
REMARK   39  A    between atoms: _93  and  _94
REMARK   40  A    between atoms: _94  and  _95
REMARK   41  A    between atoms: _99  and  _101
REMARK   42  A    between atoms: _101  and  _102
REMARK   43  A    between atoms: _101  and  _104
REMARK   44  A    between atoms: _104  and  _105
REMARK   45  A    between atoms: _110  and  _111
REMARK   46  A    between atoms: _113  and  _115
REMARK   47  A    between atoms: _115  and  _116
REMARK   48  A    between atoms: _115  and  _118
REMARK   49  A    between atoms: _118  and  _119
REMARK   50  A    between atoms: _119  and  _120
REMARK   51  A    between atoms: _120  and  _121
REMARK   52  A    between atoms: _130  and  _132
REMARK   53  A    between atoms: _132  and  _133
REMARK   54  A    between atoms: _136  and  _138
REMARK   55  A    between atoms: _138  and  _139
REMARK   56  A    between atoms: _138  and  _141
REMARK   57  A    between atoms: _141  and  _142
REMARK   58  A    between atoms: _142  and  _258
REMARK   59  A    between atoms: _143  and  _145
REMARK   60  A    between atoms: _145  and  _146
REMARK   61  A    between atoms: _145  and  _148
REMARK   62  A    between atoms: _148  and  _149
REMARK   63  A    between atoms: _149  and  _150
REMARK   64  A    between atoms: _153  and  _155
REMARK   65  A    between atoms: _155  and  _156
REMARK   66  A    between atoms: _155  and  _158
REMARK   67  A    between atoms: _158  and  _159
REMARK   68  A    between atoms: _161  and  _163
REMARK   69  A    between atoms: _163  and  _164
REMARK   70  A    between atoms: _163  and  _166
REMARK   71  A    between atoms: _166  and  _167
REMARK   72  A    between atoms: _172  and  _173
REMARK   73  A    between atoms: _175  and  _177
REMARK   74  A    between atoms: _177  and  _178
REMARK   75  A    between atoms: _177  and  _180
REMARK   76  A    between atoms: _180  and  _181
REMARK   77  A    between atoms: _186  and  _188
REMARK   78  A    between atoms: _188  and  _189
REMARK   79  A    between atoms: _188  and  _191
REMARK   80  A    between atoms: _194  and  _196
REMARK   81  A    between atoms: _196  and  _197
REMARK   82  A    between atoms: _196  and  _199
REMARK   83  A    between atoms: _199  and  _200
REMARK   84  A    between atoms: _200  and  _201
REMARK   85  A    between atoms: _201  and  _202
REMARK   86  A    between atoms: _211  and  _213
REMARK   87  A    between atoms: _213  and  _214
REMARK   88  A    between atoms: _213  and  _216
REMARK   89  A    between atoms: _216  and  _217
REMARK   90  A    between atoms: _222  and  _224
REMARK   91  A    between atoms: _224  and  _225
REMARK   92  A    between atoms: _224  and  _227
REMARK   93  A    between atoms: _227  and  _228
REMARK   94  A    between atoms: _231  and  _233
REMARK   95  A    between atoms: _233  and  _234
REMARK   96  A    between atoms: _236  and  _238
REMARK   97  A    between atoms: _238  and  _239
REMARK   98  A    between atoms: _238  and  _241
REMARK   99  A    between atoms: _241  and  _242
REMARK  100  A    between atoms: _252  and  _254
REMARK  101  A    between atoms: _254  and  _255
REMARK  102  A    between atoms: _254  and  _257
REMARK  103  A    between atoms: _257  and  _258
REMARK  104  A    between atoms: _259  and  _261
REMARK  105  A    between atoms: _261  and  _262
REMARK  106  A    between atoms: _261  and  _264
REMARK  107  A    between atoms: _264  and  _265
REMARK  108  A    between atoms: _268  and  _270
REMARK  109  A    between atoms: _270  and  _271
REMARK  110  A    between atoms: _273  and  _275
REMARK  111  A    between atoms: _275  and  _276
REMARK  112  A    between atoms: _275  and  _278
REMARK  113  A    between atoms: _278  and  _279
REMARK  114  A    between atoms: _284  and  _285
REMARK  115  A    between atoms: _287  and  _289
REMARK  116  A    between atoms: _289  and  _290
REMARK  117  A    between atoms: _289  and  _292
REMARK  118  A    between atoms: _292  and  _293
REMARK  119  A    between atoms: _293  and  _294
REMARK  120  A    between atoms: _294  and  _295
REMARK  121  A    between atoms: _304  and  _306
REMARK  122  A    between atoms: _306  and  _307
REMARK  123  A    between atoms: _306  and  _309
REMARK  124  A    between atoms: _309  and  _310
REMARK  125  A    between atoms: _310  and  _311
REMARK  126  A    between atoms: _311  and  _312
REMARK  127  A    between atoms: _312  and  _313
REMARK  128  A    between atoms: _317  and  _319
REMARK  129  A    between atoms: _319  and  _320
REMARK  130  A    between atoms: _322  and  _324
REMARK  131  A    between atoms: _324  and  _325
REMARK  132  A    between atoms: _328  and  _330
REMARK  133  A    between atoms: _330  and  _331
REMARK  134  A    between atoms: _330  and  _333
REMARK  135  A    between atoms: _333  and  _334
REMARK  136  A    between atoms: _339  and  _341
REMARK  137  A    between atoms: _341  and  _342
REMARK  138  A    between atoms: _345  and  _347
REMARK  139  A    between atoms: _347  and  _348
REMARK  140  A    between atoms: _351  and  _352
REMARK  141  A    between atoms: _357  and  _359
REMARK  142  A    between atoms: _359  and  _360
REMARK  143  A    between atoms: _359  and  _362
REMARK  144  A    between atoms: _362  and  _363
REMARK  145  A    between atoms: _366  and  _368
REMARK  146  A    between atoms: _368  and  _369
REMARK  147  A    between atoms: _368  and  _371
REMARK  148  A    between atoms: _371  and  _372
REMARK  149  A    between atoms: _382  and  _384
REMARK  150  A    between atoms: _384  and  _385
REMARK  151  A    between atoms: _384  and  _387
REMARK  152  A    between atoms: _387  and  _388
REMARK  153  A    between atoms: _394  and  _395
REMARK  154  A    between atoms: _400  and  _402
REMARK  155  A    between atoms: _402  and  _403
REMARK  156  A    between atoms: _402  and  _405
REMARK  157  A    between atoms: _405  and  _406
REMARK  158  A    between atoms: _409  and  _411
REMARK  159  A    between atoms: _411  and  _412
REMARK  160  A    between atoms: _411  and  _414
REMARK  161  A    between atoms: _414  and  _415
REMARK  162  A    between atoms: _417  and  _419
REMARK  163  A    between atoms: _419  and  _420
REMARK  164  A    between atoms: _419  and  _422
REMARK  165  A    between atoms: _422  and  _423
REMARK  166  A    between atoms: _428  and  _430
REMARK  167  A    between atoms: _430  and  _431
REMARK  168  A    between atoms: _430  and  _433
REMARK  169  A    between atoms: _436  and  _438
REMARK  170  A    between atoms: _438  and  _439
REMARK  171  A    between atoms: _438  and  _441
REMARK  172  A    between atoms: _441  and  _442
REMARK  173  A    between atoms: _442  and  _443
REMARK  174  A    between atoms: _449  and  _450
REMARK  175  A    between atoms: _455  and  _457
REMARK  176  A    between atoms: _457  and  _458
REMARK  177  A    between atoms: _457  and  _460
REMARK  178  A    between atoms: _460  and  _461
REMARK  179  A    between atoms: _464  and  _466
REMARK  180  A    between atoms: _466  and  _467
REMARK  181  A    between atoms: _466  and  _469
REMARK  182  A    between atoms: _469  and  _470
REMARK  183  A    between atoms: _473  and  _475
REMARK  184  A    between atoms: _475  and  _476
REMARK  185  A    between atoms: _475  and  _478
REMARK  186  A    between atoms: _478  and  _479
REMARK  187  A    between atoms: _481  and  _483
REMARK  188  A    between atoms: _483  and  _484
REMARK  189  A    between atoms: _483  and  _486
REMARK  190  A    between atoms: _486  and  _487
REMARK  191  A    between atoms: _492  and  _493
REMARK  192  A    between atoms: _495  and  _497
REMARK  193  A    between atoms: _497  and  _498
REMARK  194  A    between atoms: _497  and  _500
REMARK  195  A    between atoms: _500  and  _501
REMARK  196  A    between atoms: _506  and  _508
REMARK  197  A    between atoms: _508  and  _509
REMARK  198  A    between atoms: _508  and  _511
REMARK  199  A    between atoms: _511  and  _512
REMARK  200  A    between atoms: _515  and  _517
REMARK  201  A    between atoms: _517  and  _518
REMARK  202  A    between atoms: _517  and  _520
REMARK  203  A    between atoms: _520  and  _521
REMARK  204  A    between atoms: _531  and  _533
REMARK  205  A    between atoms: _533  and  _534
REMARK  206  A    between atoms: _536  and  _538
REMARK  207  A    between atoms: _538  and  _539
REMARK  208  A    between atoms: _538  and  _541
REMARK  209  A    between atoms: _541  and  _542
REMARK  210  A    between atoms: _547  and  _548
REMARK  211  A    between atoms: _550  and  _552
REMARK  212  A    between atoms: _552  and  _553
REMARK  213  A    between atoms: _552  and  _555
REMARK  214  A    between atoms: _555  and  _556
REMARK  215  A    between atoms: _556  and  _557
REMARK  216  A    between atoms: _557  and  _558
REMARK  217  A    between atoms: _567  and  _569
REMARK  218  A    between atoms: _569  and  _570
REMARK  219  A    between atoms: _569  and  _572
REMARK  220  A    between atoms: _572  and  _573
REMARK  221  A    between atoms: _573  and  _574
REMARK  222  A    between atoms: _574  and  _575
REMARK  223  A    between atoms: _575  and  _576
REMARK  224  A    between atoms: _580  and  _582
REMARK  225  A    between atoms: _582  and  _583
REMARK  226  A    between atoms: _585  and  _587
REMARK  227  A    between atoms: _587  and  _588
REMARK  228  A    between atoms: _591  and  _593
REMARK  229  A    between atoms: _593  and  _594
REMARK  230  A    between atoms: _593  and  _596
REMARK  231  A    between atoms: _596  and  _597
REMARK  232  A    between atoms: _602  and  _604
REMARK  233  A    between atoms: _604  and  _605
REMARK  234  A    between atoms: _608  and  _610
REMARK  235  A    between atoms: _610  and  _611
REMARK  236  A    between atoms: _614  and  _615
REMARK  237  A    between atoms: _620  and  _622
REMARK  238  A    between atoms: _622  and  _623
REMARK  239  A    between atoms: _622  and  _625
REMARK  240  A    between atoms: _625  and  _626
REMARK  241  A    between atoms: _629  and  _631
REMARK  242  A    between atoms: _631  and  _632
REMARK  243  A    between atoms: _631  and  _634
REMARK  244  A    between atoms: _634  and  _635
REMARK  245  A    between atoms: _645  and  _647
REMARK  246  A    between atoms: _647  and  _648
REMARK  247  A    between atoms: _647  and  _650
REMARK  248  A    between atoms: _650  and  _651
REMARK  249  A    between atoms: _657  and  _658
REMARK  250  A    between atoms: _663  and  _665
REMARK  251  A    between atoms: _665  and  _666
REMARK  252  A    between atoms: _665  and  _668
REMARK  253  A    between atoms: _668  and  _669
REMARK  254  A    between atoms: _672  and  _674
REMARK  255  A    between atoms: _674  and  _675
REMARK  256  A    between atoms: _674  and  _677
REMARK  257  A    between atoms: _677  and  _678
REMARK  258  A    between atoms: _678  and  _679
REMARK  259  A    between atoms: _682  and  _684
REMARK  260  A    between atoms: _684  and  _685
REMARK  261  A    between atoms: _684  and  _687
REMARK  262  A    between atoms: _687  and  _688
REMARK  263  A    between atoms: _688  and  _689
REMARK  264  A    between atoms: _689  and  _690
REMARK  265  A    between atoms: _690  and  _691
REMARK  266  A    between atoms: _695  and  _697
REMARK  267  A    between atoms: _697  and  _698
REMARK  268  A    between atoms: _700  and  _702
REMARK  269  A    between atoms: _702  and  _703
REMARK  270  A    between atoms: _702  and  _705
REMARK  271  A    between atoms: _705  and  _706
REMARK  272  A    between atoms: _711  and  _713
REMARK  273  A    between atoms: _713  and  _714
REMARK  274  A    between atoms: _713  and  _716
REMARK  275  A    between atoms: _716  and  _717
REMARK  276  A    between atoms: _717  and  _718
REMARK  277  A    between atoms: _718  and  _719
REMARK  278  A    between atoms: _728  and  _730
REMARK  279  A    between atoms: _730  and  _731
REMARK  280  A    between atoms: _730  and  _733
REMARK  281  A    between atoms: _733  and  _734
REMARK  282  A    between atoms: _737  and  _739
REMARK  283  A    between atoms: _739  and  _740
REMARK  284  A    between atoms: _739  and  _742
REMARK  285  A    between atoms: _745  and  _747
REMARK  286  A    between atoms: _747  and  _748
REMARK  287  A    between atoms: _747  and  _750
REMARK  288  A    between atoms: _750  and  _751
REMARK  289  A    between atoms: _751  and  _752
REMARK  290  A    between atoms: _758  and  _759
REMARK  291  A    between atoms: _764  and  _766
REMARK  292  A    between atoms: _766  and  _767
REMARK  293  A    between atoms: _766  and  _769
REMARK  294  A    between atoms: _769  and  _770
REMARK  295  A    between atoms: _773  and  _775
REMARK  296  A    between atoms: _775  and  _776
REMARK  297  A    between atoms: _775  and  _778
REMARK  298  A    between atoms: _778  and  _779
REMARK  299  A    between atoms: _782  and  _784
REMARK  300  A    between atoms: _784  and  _785
REMARK  301  A    between atoms: _784  and  _787
REMARK  302  A    between atoms: _787  and  _788
REMARK  303  A    between atoms: _790  and  _792
REMARK  304  A    between atoms: _792  and  _793
REMARK  305  A    between atoms: _792  and  _795
REMARK  306  A    between atoms: _795  and  _796
REMARK  307  A    between atoms: _796  and  _797
REMARK  308  A    between atoms: _797  and  _798
REMARK  309  A    between atoms: _807  and  _809
REMARK  310  A    between atoms: _809  and  _810
REMARK                            x       y       z     vdW  Elec       q    Type
REMARK                         _______ _______ _______ _____ _____    ______ ____
ROOT
ATOM      1  O   HOH     1     -37.328 -31.182 -31.057  0.00  0.00    +0.000 OA
ENDROOT
TORSDOF 0
REMARK  Name = ../refined-set-2016/3rt4/3rt4_pocket.pdb
REMARK  310 active torsions:
REMARK  status: ('A' for Active; 'I' for Inactive)
REMARK    1  A    between atoms: _1  and  _3
REMARK    2  A    between atoms: _3  and  _4
REMARK    3  A    between atoms: _3  and  _6
REMARK    4  A    between atoms: _6  and  _7
REMARK    5  A    between atoms: _7  and  _8
REMARK    6  A    between atoms: _8  and  _9
REMARK    7  A    between atoms: _18  and  _20
REMARK    8  A    between atoms: _20  and  _21
REMARK    9  A    between atoms: _20  and  _23
REMARK   10  A    between atoms: _26  and  _28
REMARK   11  A    between atoms: _28  and  _29
REMARK   12  A    between atoms: _28  and  _31
REMARK   13  A    between atoms: _31  and  _32
REMARK   14  A    between atoms: _32  and  _33
REMARK   15  A    between atoms: _33  and  _34
REMARK   16  A    between atoms: _43  and  _45
REMARK   17  A    between atoms: _45  and  _46
REMARK   18  A    between atoms: _45  and  _48
REMARK   19  A    between atoms: _48  and  _49
REMARK   20  A    between atoms: _51  and  _53
REMARK   21  A    between atoms: _53  and  _54
REMARK   22  A    between atoms: _53  and  _56
REMARK   23  A    between atoms: _56  and  _57
REMARK   24  A    between atoms: _62  and  _64
REMARK   25  A    between atoms: _64  and  _65
REMARK   26  A    between atoms: _64  and  _67
REMARK   27  A    between atoms: _67  and  _68
REMARK   28  A    between atoms: _73  and  _74
REMARK   29  A    between atoms: _76  and  _78
REMARK   30  A    between atoms: _78  and  _79
REMARK   31  A    between atoms: _78  and  _81
REMARK   32  A    between atoms: _81  and  _82
REMARK   33  A    between atoms: _82  and  _83
REMARK   34  A    between atoms: _86  and  _88
REMARK   35  A    between atoms: _88  and  _89
REMARK   36  A    between atoms: _88  and  _91
REMARK   37  A    between atoms: _91  and  _92
REMARK   38  A    between atoms: _92  and  _93
REMARK   39  A    between atoms: _93  and  _94
REMARK   40  A    between atoms: _94  and  _95
REMARK   41  A    between atoms: _99  and  _101
REMARK   42  A    between atoms: _101  and  _102
REMARK   43  A    between atoms: _101  and  _104
REMARK   44  A    between atoms: _104  and  _105
REMARK   45  A    between atoms: _110  and  _111
REMARK   46  A    between atoms: _113  and  _115
REMARK   47  A    between atoms: _115  and  _116
REMARK   48  A    between atoms: _115  and  _118
REMARK   49  A    between atoms: _118  and  _119
REMARK   50  A    between atoms: _119  and  _120
REMARK   51  A    between atoms: _120  and  _121
REMARK   52  A    between atoms: _130  and  _132
REMARK   53  A    between atoms: _132  and  _133
REMARK   54  A    between atoms: _136  and  _138
REMARK   55  A    between atoms: _138  and  _139
REMARK   56  A    between atoms: _138  and  _141
REMARK   57  A    between atoms: _141  and  _142
REMARK   58  A    between atoms: _142  and  _258
REMARK   59  A    between atoms: _143  and  _145
REMARK   60  A    between atoms: _145  and  _146
REMARK   61  A    between atoms: _145  and  _148
REMARK   62  A    between atoms: _148  and  _149
REMARK   63  A    between atoms: _149  and  _150
REMARK   64  A    between atoms: _153  and  _155
REMARK   65  A    between atoms: _155  and  _156
REMARK   66  A    between atoms: _155  and  _158
REMARK   67  A    between atoms: _158  and  _159
REMARK   68  A    between atoms: _161  and  _163
REMARK   69  A    between atoms: _163  and  _164
REMARK   70  A    between atoms: _163  and  _166
REMARK   71  A    between atoms: _166  and  _167
REMARK   72  A    between atoms: _172  and  _173
REMARK   73  A    between atoms: _175  and  _177
REMARK   74  A    between atoms: _177  and  _178
REMARK   75  A    between atoms: _177  and  _180
REMARK   76  A    between atoms: _180  and  _181
REMARK   77  A    between atoms: _186  and  _188
REMARK   78  A    between atoms: _188  and  _189
REMARK   79  A    between atoms: _188  and  _191
REMARK   80  A    between atoms: _194  and  _196
REMARK   81  A    between atoms: _196  and  _197
REMARK   82  A    between atoms: _196  and  _199
REMARK   83  A    between atoms: _199  and  _200
REMARK   84  A    between atoms: _200  and  _201
REMARK   85  A    between atoms: _201  and  _202
REMARK   86  A    between atoms: _211  and  _213
REMARK   87  A    between atoms: _213  and  _214
REMARK   88  A    between atoms: _213  and  _216
REMARK   89  A    between atoms: _216  and  _217
REMARK   90  A    between atoms: _222  and  _224
REMARK   91  A    between atoms: _224  and  _225
REMARK   92  A    between atoms: _224  and  _227
REMARK   93  A    between atoms: _227  and  _228
REMARK   94  A    between atoms: _231  and  _233
REMARK   95  A    between atoms: _233  and  _234
REMARK   96  A    between atoms: _236  and  _238
REMARK   97  A    between atoms: _238  and  _239
REMARK   98  A    between atoms: _238  and  _241
REMARK   99  A    between atoms: _241  and  _242
REMARK  100  A    between atoms: _252  and  _254
REMARK  101  A    between atoms: _254  and  _255
REMARK  102  A    between atoms: _254  and  _257
REMARK  103  A    between atoms: _257  and  _258
REMARK  104  A    between atoms: _259  and  _261
REMARK  105  A    between atoms: _261  and  _262
REMARK  106  A    between atoms: _261  and  _264
REMARK  107  A    between atoms: _264  and  _265
REMARK  108  A    between atoms: _268  and  _270
REMARK  109  A    between atoms: _270  and  _271
REMARK  110  A    between atoms: _273  and  _275
REMARK  111  A    between atoms: _275  and  _276
REMARK  112  A    between atoms: _275  and  _278
REMARK  113  A    between atoms: _278  and  _279
REMARK  114  A    between atoms: _284  and  _285
REMARK  115  A    between atoms: _287  and  _289
REMARK  116  A    between atoms: _289  and  _290
REMARK  117  A    between atoms: _289  and  _292
REMARK  118  A    between atoms: _292  and  _293
REMARK  119  A    between atoms: _293  and  _294
REMARK  120  A    between atoms: _294  and  _295
REMARK  121  A    between atoms: _304  and  _306
REMARK  122  A    between atoms: _306  and  _307
REMARK  123  A    between atoms: _306  and  _309
REMARK  124  A    between atoms: _309  and  _310
REMARK  125  A    between atoms: _310  and  _311
REMARK  126  A    between atoms: _311  and  _312
REMARK  127  A    between atoms: _312  and  _313
REMARK  128  A    between atoms: _317  and  _319
REMARK  129  A    between atoms: _319  and  _320
REMARK  130  A    between atoms: _322  and  _324
REMARK  131  A    between atoms: _324  and  _325
REMARK  132  A    between atoms: _328  and  _330
REMARK  133  A    between atoms: _330  and  _331
REMARK  134  A    between atoms: _330  and  _333
REMARK  135  A    between atoms: _333  and  _334
REMARK  136  A    between atoms: _339  and  _341
REMARK  137  A    between atoms: _341  and  _342
REMARK  138  A    between atoms: _345  and  _347
REMARK  139  A    between atoms: _347  and  _348
REMARK  140  A    between atoms: _351  and  _352
REMARK  141  A    between atoms: _357  and  _359
REMARK  142  A    between atoms: _359  and  _360
REMARK  143  A    between atoms: _359  and  _362
REMARK  144  A    between atoms: _362  and  _363
REMARK  145  A    between atoms: _366  and  _368
REMARK  146  A    between atoms: _368  and  _369
REMARK  147  A    between atoms: _368  and  _371
REMARK  148  A    between atoms: _371  and  _372
REMARK  149  A    between atoms: _382  and  _384
REMARK  150  A    between atoms: _384  and  _385
REMARK  151  A    between atoms: _384  and  _387
REMARK  152  A    between atoms: _387  and  _388
REMARK  153  A    between atoms: _394  and  _395
REMARK  154  A    between atoms: _400  and  _402
REMARK  155  A    between atoms: _402  and  _403
REMARK  156  A    between atoms: _402  and  _405
REMARK  157  A    between atoms: _405  and  _406
REMARK  158  A    between atoms: _409  and  _411
REMARK  159  A    between atoms: _411  and  _412
REMARK  160  A    between atoms: _411  and  _414
REMARK  161  A    between atoms: _414  and  _415
REMARK  162  A    between atoms: _417  and  _419
REMARK  163  A    between atoms: _419  and  _420
REMARK  164  A    between atoms: _419  and  _422
REMARK  165  A    between atoms: _422  and  _423
REMARK  166  A    between atoms: _428  and  _430
REMARK  167  A    between atoms: _430  and  _431
REMARK  168  A    between atoms: _430  and  _433
REMARK  169  A    between atoms: _436  and  _438
REMARK  170  A    between atoms: _438  and  _439
REMARK  171  A    between atoms: _438  and  _441
REMARK  172  A    between atoms: _441  and  _442
REMARK  173  A    between atoms: _442  and  _443
REMARK  174  A    between atoms: _449  and  _450
REMARK  175  A    between atoms: _455  and  _457
REMARK  176  A    between atoms: _457  and  _458
REMARK  177  A    between atoms: _457  and  _460
REMARK  178  A    between atoms: _460  and  _461
REMARK  179  A    between atoms: _464  and  _466
REMARK  180  A    between atoms: _466  and  _467
REMARK  181  A    between atoms: _466  and  _469
REMARK  182  A    between atoms: _469  and  _470
REMARK  183  A    between atoms: _473  and  _475
REMARK  184  A    between atoms: _475  and  _476
REMARK  185  A    between atoms: _475  and  _478
REMARK  186  A    between atoms: _478  and  _479
REMARK  187  A    between atoms: _481  and  _483
REMARK  188  A    between atoms: _483  and  _484
REMARK  189  A    between atoms: _483  and  _486
REMARK  190  A    between atoms: _486  and  _487
REMARK  191  A    between atoms: _492  and  _493
REMARK  192  A    between atoms: _495  and  _497
REMARK  193  A    between atoms: _497  and  _498
REMARK  194  A    between atoms: _497  and  _500
REMARK  195  A    between atoms: _500  and  _501
REMARK  196  A    between atoms: _506  and  _508
REMARK  197  A    between atoms: _508  and  _509
REMARK  198  A    between atoms: _508  and  _511
REMARK  199  A    between atoms: _511  and  _512
REMARK  200  A    between atoms: _515  and  _517
REMARK  201  A    between atoms: _517  and  _518
REMARK  202  A    between atoms: _517  and  _520
REMARK  203  A    between atoms: _520  and  _521
REMARK  204  A    between atoms: _531  and  _533
REMARK  205  A    between atoms: _533  and  _534
REMARK  206  A    between atoms: _536  and  _538
REMARK  207  A    between atoms: _538  and  _539
REMARK  208  A    between atoms: _538  and  _541
REMARK  209  A    between atoms: _541  and  _542
REMARK  210  A    between atoms: _547  and  _548
REMARK  211  A    between atoms: _550  and  _552
REMARK  212  A    between atoms: _552  and  _553
REMARK  213  A    between atoms: _552  and  _555
REMARK  214  A    between atoms: _555  and  _556
REMARK  215  A    between atoms: _556  and  _557
REMARK  216  A    between atoms: _557  and  _558
REMARK  217  A    between atoms: _567  and  _569
REMARK  218  A    between atoms: _569  and  _570
REMARK  219  A    between atoms: _569  and  _572
REMARK  220  A    between atoms: _572  and  _573
REMARK  221  A    between atoms: _573  and  _574
REMARK  222  A    between atoms: _574  and  _575
REMARK  223  A    between atoms: _575  and  _576
REMARK  224  A    between atoms: _580  and  _582
REMARK  225  A    between atoms: _582  and  _583
REMARK  226  A    between atoms: _585  and  _587
REMARK  227  A    between atoms: _587  and  _588
REMARK  228  A    between atoms: _591  and  _593
REMARK  229  A    between atoms: _593  and  _594
REMARK  230  A    between atoms: _593  and  _596
REMARK  231  A    between atoms: _596  and  _597
REMARK  232  A    between atoms: _602  and  _604
REMARK  233  A    between atoms: _604  and  _605
REMARK  234  A    between atoms: _608  and  _610
REMARK  235  A    between atoms: _610  and  _611
REMARK  236  A    between atoms: _614  and  _615
REMARK  237  A    between atoms: _620  and  _622
REMARK  238  A    between atoms: _622  and  _623
REMARK  239  A    between atoms: _622  and  _625
REMARK  240  A    between atoms: _625  and  _626
REMARK  241  A    between atoms: _629  and  _631
REMARK  242  A    between atoms: _631  and  _632
REMARK  243  A    between atoms: _631  and  _634
REMARK  244  A    between atoms: _634  and  _635
REMARK  245  A    between atoms: _645  and  _647
REMARK  246  A    between atoms: _647  and  _648
REMARK  247  A    between atoms: _647  and  _650
REMARK  248  A    between atoms: _650  and  _651
REMARK  249  A    between atoms: _657  and  _658
REMARK  250  A    between atoms: _663  and  _665
REMARK  251  A    between atoms: _665  and  _666
REMARK  252  A    between atoms: _665  and  _668
REMARK  253  A    between atoms: _668  and  _669
REMARK  254  A    between atoms: _672  and  _674
REMARK  255  A    between atoms: _674  and  _675
REMARK  256  A    between atoms: _674  and  _677
REMARK  257  A    between atoms: _677  and  _678
REMARK  258  A    between atoms: _678  and  _679
REMARK  259  A    between atoms: _682  and  _684
REMARK  260  A    between atoms: _684  and  _685
REMARK  261  A    between atoms: _684  and  _687
REMARK  262  A    between atoms: _687  and  _688
REMARK  263  A    between atoms: _688  and  _689
REMARK  264  A    between atoms: _689  and  _690
REMARK  265  A    between atoms: _690  and  _691
REMARK  266  A    between atoms: _695  and  _697
REMARK  267  A    between atoms: _697  and  _698
REMARK  268  A    between atoms: _700  and  _702
REMARK  269  A    between atoms: _702  and  _703
REMARK  270  A    between atoms: _702  and  _705
REMARK  271  A    between atoms: _705  and  _706
REMARK  272  A    between atoms: _711  and  _713
REMARK  273  A    between atoms: _713  and  _714
REMARK  274  A    between atoms: _713  and  _716
REMARK  275  A    between atoms: _716  and  _717
REMARK  276  A    between atoms: _717  and  _718
REMARK  277  A    between atoms: _718  and  _719
REMARK  278  A    between atoms: _728  and  _730
REMARK  279  A    between atoms: _730  and  _731
REMARK  280  A    between atoms: _730  and  _733
REMARK  281  A    between atoms: _733  and  _734
REMARK  282  A    between atoms: _737  and  _739
REMARK  283  A    between atoms: _739  and  _740
REMARK  284  A    between atoms: _739  and  _742
REMARK  285  A    between atoms: _745  and  _747
REMARK  286  A    between atoms: _747  and  _748
REMARK  287  A    between atoms: _747  and  _750
REMARK  288  A    between atoms: _750  and  _751
REMARK  289  A    between atoms: _751  and  _752
REMARK  290  A    between atoms: _758  and  _759
REMARK  291  A    between atoms: _764  and  _766
REMARK  292  A    between atoms: _766  and  _767
REMARK  293  A    between atoms: _766  and  _769
REMARK  294  A    between atoms: _769  and  _770
REMARK  295  A    between atoms: _773  and  _775
REMARK  296  A    between atoms: _775  and  _776
REMARK  297  A    between atoms: _775  and  _778
REMARK  298  A    between atoms: _778  and  _779
REMARK  299  A    between atoms: _782  and  _784
REMARK  300  A    between atoms: _784  and  _785
REMARK  301  A    between atoms: _784  and  _787
REMARK  302  A    between atoms: _787  and  _788
REMARK  303  A    between atoms: _790  and  _792
REMARK  304  A    between atoms: _792  and  _793
REMARK  305  A    between atoms: _792  and  _795
REMARK  306  A    between atoms: _795  and  _796
REMARK  307  A    between atoms: _796  and  _797
REMARK  308  A    between atoms: _797  and  _798
REMARK  309  A    between atoms: _807  and  _809
REMARK  310  A    between atoms: _809  and  _810
REMARK                            x       y       z     vdW  Elec       q    Type
REMARK                         _______ _______ _______ _____ _____    ______ ____
ROOT
ATOM      1  O   HOH     1     -34.737 -26.500 -34.346  0.00  0.00    +0.000 OA
ENDROOT
TORSDOF 0
REMARK  Name = ../refined-set-2016/3rt4/3rt4_pocket.pdb
REMARK  310 active torsions:
REMARK  status: ('A' for Active; 'I' for Inactive)
REMARK    1  A    between atoms: _1  and  _3
REMARK    2  A    between atoms: _3  and  _4
REMARK    3  A    between atoms: _3  and  _6
REMARK    4  A    between atoms: _6  and  _7
REMARK    5  A    between atoms: _7  and  _8
REMARK    6  A    between atoms: _8  and  _9
REMARK    7  A    between atoms: _18  and  _20
REMARK    8  A    between atoms: _20  and  _21
REMARK    9  A    between atoms: _20  and  _23
REMARK   10  A    between atoms: _26  and  _28
REMARK   11  A    between atoms: _28  and  _29
REMARK   12  A    between atoms: _28  and  _31
REMARK   13  A    between atoms: _31  and  _32
REMARK   14  A    between atoms: _32  and  _33
REMARK   15  A    between atoms: _33  and  _34
REMARK   16  A    between atoms: _43  and  _45
REMARK   17  A    between atoms: _45  and  _46
REMARK   18  A    between atoms: _45  and  _48
REMARK   19  A    between atoms: _48  and  _49
REMARK   20  A    between atoms: _51  and  _53
REMARK   21  A    between atoms: _53  and  _54
REMARK   22  A    between atoms: _53  and  _56
REMARK   23  A    between atoms: _56  and  _57
REMARK   24  A    between atoms: _62  and  _64
REMARK   25  A    between atoms: _64  and  _65
REMARK   26  A    between atoms: _64  and  _67
REMARK   27  A    between atoms: _67  and  _68
REMARK   28  A    between atoms: _73  and  _74
REMARK   29  A    between atoms: _76  and  _78
REMARK   30  A    between atoms: _78  and  _79
REMARK   31  A    between atoms: _78  and  _81
REMARK   32  A    between atoms: _81  and  _82
REMARK   33  A    between atoms: _82  and  _83
REMARK   34  A    between atoms: _86  and  _88
REMARK   35  A    between atoms: _88  and  _89
REMARK   36  A    between atoms: _88  and  _91
REMARK   37  A    between atoms: _91  and  _92
REMARK   38  A    between atoms: _92  and  _93
REMARK   39  A    between atoms: _93  and  _94
REMARK   40  A    between atoms: _94  and  _95
REMARK   41  A    between atoms: _99  and  _101
REMARK   42  A    between atoms: _101  and  _102
REMARK   43  A    between atoms: _101  and  _104
REMARK   44  A    between atoms: _104  and  _105
REMARK   45  A    between atoms: _110  and  _111
REMARK   46  A    between atoms: _113  and  _115
REMARK   47  A    between atoms: _115  and  _116
REMARK   48  A    between atoms: _115  and  _118
REMARK   49  A    between atoms: _118  and  _119
REMARK   50  A    between atoms: _119  and  _120
REMARK   51  A    between atoms: _120  and  _121
REMARK   52  A    between atoms: _130  and  _132
REMARK   53  A    between atoms: _132  and  _133
REMARK   54  A    between atoms: _136  and  _138
REMARK   55  A    between atoms: _138  and  _139
REMARK   56  A    between atoms: _138  and  _141
REMARK   57  A    between atoms: _141  and  _142
REMARK   58  A    between atoms: _142  and  _258
REMARK   59  A    between atoms: _143  and  _145
REMARK   60  A    between atoms: _145  and  _146
REMARK   61  A    between atoms: _145  and  _148
REMARK   62  A    between atoms: _148  and  _149
REMARK   63  A    between atoms: _149  and  _150
REMARK   64  A    between atoms: _153  and  _155
REMARK   65  A    between atoms: _155  and  _156
REMARK   66  A    between atoms: _155  and  _158
REMARK   67  A    between atoms: _158  and  _159
REMARK   68  A    between atoms: _161  and  _163
REMARK   69  A    between atoms: _163  and  _164
REMARK   70  A    between atoms: _163  and  _166
REMARK   71  A    between atoms: _166  and  _167
REMARK   72  A    between atoms: _172  and  _173
REMARK   73  A    between atoms: _175  and  _177
REMARK   74  A    between atoms: _177  and  _178
REMARK   75  A    between atoms: _177  and  _180
REMARK   76  A    between atoms: _180  and  _181
REMARK   77  A    between atoms: _186  and  _188
REMARK   78  A    between atoms: _188  and  _189
REMARK   79  A    between atoms: _188  and  _191
REMARK   80  A    between atoms: _194  and  _196
REMARK   81  A    between atoms: _196  and  _197
REMARK   82  A    between atoms: _196  and  _199
REMARK   83  A    between atoms: _199  and  _200
REMARK   84  A    between atoms: _200  and  _201
REMARK   85  A    between atoms: _201  and  _202
REMARK   86  A    between atoms: _211  and  _213
REMARK   87  A    between atoms: _213  and  _214
REMARK   88  A    between atoms: _213  and  _216
REMARK   89  A    between atoms: _216  and  _217
REMARK   90  A    between atoms: _222  and  _224
REMARK   91  A    between atoms: _224  and  _225
REMARK   92  A    between atoms: _224  and  _227
REMARK   93  A    between atoms: _227  and  _228
REMARK   94  A    between atoms: _231  and  _233
REMARK   95  A    between atoms: _233  and  _234
REMARK   96  A    between atoms: _236  and  _238
REMARK   97  A    between atoms: _238  and  _239
REMARK   98  A    between atoms: _238  and  _241
REMARK   99  A    between atoms: _241  and  _242
REMARK  100  A    between atoms: _252  and  _254
REMARK  101  A    between atoms: _254  and  _255
REMARK  102  A    between atoms: _254  and  _257
REMARK  103  A    between atoms: _257  and  _258
REMARK  104  A    between atoms: _259  and  _261
REMARK  105  A    between atoms: _261  and  _262
REMARK  106  A    between atoms: _261  and  _264
REMARK  107  A    between atoms: _264  and  _265
REMARK  108  A    between atoms: _268  and  _270
REMARK  109  A    between atoms: _270  and  _271
REMARK  110  A    between atoms: _273  and  _275
REMARK  111  A    between atoms: _275  and  _276
REMARK  112  A    between atoms: _275  and  _278
REMARK  113  A    between atoms: _278  and  _279
REMARK  114  A    between atoms: _284  and  _285
REMARK  115  A    between atoms: _287  and  _289
REMARK  116  A    between atoms: _289  and  _290
REMARK  117  A    between atoms: _289  and  _292
REMARK  118  A    between atoms: _292  and  _293
REMARK  119  A    between atoms: _293  and  _294
REMARK  120  A    between atoms: _294  and  _295
REMARK  121  A    between atoms: _304  and  _306
REMARK  122  A    between atoms: _306  and  _307
REMARK  123  A    between atoms: _306  and  _309
REMARK  124  A    between atoms: _309  and  _310
REMARK  125  A    between atoms: _310  and  _311
REMARK  126  A    between atoms: _311  and  _312
REMARK  127  A    between atoms: _312  and  _313
REMARK  128  A    between atoms: _317  and  _319
REMARK  129  A    between atoms: _319  and  _320
REMARK  130  A    between atoms: _322  and  _324
REMARK  131  A    between atoms: _324  and  _325
REMARK  132  A    between atoms: _328  and  _330
REMARK  133  A    between atoms: _330  and  _331
REMARK  134  A    between atoms: _330  and  _333
REMARK  135  A    between atoms: _333  and  _334
REMARK  136  A    between atoms: _339  and  _341
REMARK  137  A    between atoms: _341  and  _342
REMARK  138  A    between atoms: _345  and  _347
REMARK  139  A    between atoms: _347  and  _348
REMARK  140  A    between atoms: _351  and  _352
REMARK  141  A    between atoms: _357  and  _359
REMARK  142  A    between atoms: _359  and  _360
REMARK  143  A    between atoms: _359  and  _362
REMARK  144  A    between atoms: _362  and  _363
REMARK  145  A    between atoms: _366  and  _368
REMARK  146  A    between atoms: _368  and  _369
REMARK  147  A    between atoms: _368  and  _371
REMARK  148  A    between atoms: _371  and  _372
REMARK  149  A    between atoms: _382  and  _384
REMARK  150  A    between atoms: _384  and  _385
REMARK  151  A    between atoms: _384  and  _387
REMARK  152  A    between atoms: _387  and  _388
REMARK  153  A    between atoms: _394  and  _395
REMARK  154  A    between atoms: _400  and  _402
REMARK  155  A    between atoms: _402  and  _403
REMARK  156  A    between atoms: _402  and  _405
REMARK  157  A    between atoms: _405  and  _406
REMARK  158  A    between atoms: _409  and  _411
REMARK  159  A    between atoms: _411  and  _412
REMARK  160  A    between atoms: _411  and  _414
REMARK  161  A    between atoms: _414  and  _415
REMARK  162  A    between atoms: _417  and  _419
REMARK  163  A    between atoms: _419  and  _420
REMARK  164  A    between atoms: _419  and  _422
REMARK  165  A    between atoms: _422  and  _423
REMARK  166  A    between atoms: _428  and  _430
REMARK  167  A    between atoms: _430  and  _431
REMARK  168  A    between atoms: _430  and  _433
REMARK  169  A    between atoms: _436  and  _438
REMARK  170  A    between atoms: _438  and  _439
REMARK  171  A    between atoms: _438  and  _441
REMARK  172  A    between atoms: _441  and  _442
REMARK  173  A    between atoms: _442  and  _443
REMARK  174  A    between atoms: _449  and  _450
REMARK  175  A    between atoms: _455  and  _457
REMARK  176  A    between atoms: _457  and  _458
REMARK  177  A    between atoms: _457  and  _460
REMARK  178  A    between atoms: _460  and  _461
REMARK  179  A    between atoms: _464  and  _466
REMARK  180  A    between atoms: _466  and  _467
REMARK  181  A    between atoms: _466  and  _469
REMARK  182  A    between atoms: _469  and  _470
REMARK  183  A    between atoms: _473  and  _475
REMARK  184  A    between atoms: _475  and  _476
REMARK  185  A    between atoms: _475  and  _478
REMARK  186  A    between atoms: _478  and  _479
REMARK  187  A    between atoms: _481  and  _483
REMARK  188  A    between atoms: _483  and  _484
REMARK  189  A    between atoms: _483  and  _486
REMARK  190  A    between atoms: _486  and  _487
REMARK  191  A    between atoms: _492  and  _493
REMARK  192  A    between atoms: _495  and  _497
REMARK  193  A    between atoms: _497  and  _498
REMARK  194  A    between atoms: _497  and  _500
REMARK  195  A    between atoms: _500  and  _501
REMARK  196  A    between atoms: _506  and  _508
REMARK  197  A    between atoms: _508  and  _509
REMARK  198  A    between atoms: _508  and  _511
REMARK  199  A    between atoms: _511  and  _512
REMARK  200  A    between atoms: _515  and  _517
REMARK  201  A    between atoms: _517  and  _518
REMARK  202  A    between atoms: _517  and  _520
REMARK  203  A    between atoms: _520  and  _521
REMARK  204  A    between atoms: _531  and  _533
REMARK  205  A    between atoms: _533  and  _534
REMARK  206  A    between atoms: _536  and  _538
REMARK  207  A    between atoms: _538  and  _539
REMARK  208  A    between atoms: _538  and  _541
REMARK  209  A    between atoms: _541  and  _542
REMARK  210  A    between atoms: _547  and  _548
REMARK  211  A    between atoms: _550  and  _552
REMARK  212  A    between atoms: _552  and  _553
REMARK  213  A    between atoms: _552  and  _555
REMARK  214  A    between atoms: _555  and  _556
REMARK  215  A    between atoms: _556  and  _557
REMARK  216  A    between atoms: _557  and  _558
REMARK  217  A    between atoms: _567  and  _569
REMARK  218  A    between atoms: _569  and  _570
REMARK  219  A    between atoms: _569  and  _572
REMARK  220  A    between atoms: _572  and  _573
REMARK  221  A    between atoms: _573  and  _574
REMARK  222  A    between atoms: _574  and  _575
REMARK  223  A    between atoms: _575  and  _576
REMARK  224  A    between atoms: _580  and  _582
REMARK  225  A    between atoms: _582  and  _583
REMARK  226  A    between atoms: _585  and  _587
REMARK  227  A    between atoms: _587  and  _588
REMARK  228  A    between atoms: _591  and  _593
REMARK  229  A    between atoms: _593  and  _594
REMARK  230  A    between atoms: _593  and  _596
REMARK  231  A    between atoms: _596  and  _597
REMARK  232  A    between atoms: _602  and  _604
REMARK  233  A    between atoms: _604  and  _605
REMARK  234  A    between atoms: _608  and  _610
REMARK  235  A    between atoms: _610  and  _611
REMARK  236  A    between atoms: _614  and  _615
REMARK  237  A    between atoms: _620  and  _622
REMARK  238  A    between atoms: _622  and  _623
REMARK  239  A    between atoms: _622  and  _625
REMARK  240  A    between atoms: _625  and  _626
REMARK  241  A    between atoms: _629  and  _631
REMARK  242  A    between atoms: _631  and  _632
REMARK  243  A    between atoms: _631  and  _634
REMARK  244  A    between atoms: _634  and  _635
REMARK  245  A    between atoms: _645  and  _647
REMARK  246  A    between atoms: _647  and  _648
REMARK  247  A    between atoms: _647  and  _650
REMARK  248  A    between atoms: _650  and  _651
REMARK  249  A    between atoms: _657  and  _658
REMARK  250  A    between atoms: _663  and  _665
REMARK  251  A    between atoms: _665  and  _666
REMARK  252  A    between atoms: _665  and  _668
REMARK  253  A    between atoms: _668  and  _669
REMARK  254  A    between atoms: _672  and  _674
REMARK  255  A    between atoms: _674  and  _675
REMARK  256  A    between atoms: _674  and  _677
REMARK  257  A    between atoms: _677  and  _678
REMARK  258  A    between atoms: _678  and  _679
REMARK  259  A    between atoms: _682  and  _684
REMARK  260  A    between atoms: _684  and  _685
REMARK  261  A    between atoms: _684  and  _687
REMARK  262  A    between atoms: _687  and  _688
REMARK  263  A    between atoms: _688  and  _689
REMARK  264  A    between atoms: _689  and  _690
REMARK  265  A    between atoms: _690  and  _691
REMARK  266  A    between atoms: _695  and  _697
REMARK  267  A    between atoms: _697  and  _698
REMARK  268  A    between atoms: _700  and  _702
REMARK  269  A    between atoms: _702  and  _703
REMARK  270  A    between atoms: _702  and  _705
REMARK  271  A    between atoms: _705  and  _706
REMARK  272  A    between atoms: _711  and  _713
REMARK  273  A    between atoms: _713  and  _714
REMARK  274  A    between atoms: _713  and  _716
REMARK  275  A    between atoms: _716  and  _717
REMARK  276  A    between atoms: _717  and  _718
REMARK  277  A    between atoms: _718  and  _719
REMARK  278  A    between atoms: _728  and  _730
REMARK  279  A    between atoms: _730  and  _731
REMARK  280  A    between atoms: _730  and  _733
REMARK  281  A    between atoms: _733  and  _734
REMARK  282  A    between atoms: _737  and  _739
REMARK  283  A    between atoms: _739  and  _740
REMARK  284  A    between atoms: _739  and  _742
REMARK  285  A    between atoms: _745  and  _747
REMARK  286  A    between atoms: _747  and  _748
REMARK  287  A    between atoms: _747  and  _750
REMARK  288  A    between atoms: _750  and  _751
REMARK  289  A    between atoms: _751  and  _752
REMARK  290  A    between atoms: _758  and  _759
REMARK  291  A    between atoms: _764  and  _766
REMARK  292  A    between atoms: _766  and  _767
REMARK  293  A    between atoms: _766  and  _769
REMARK  294  A    between atoms: _769  and  _770
REMARK  295  A    between atoms: _773  and  _775
REMARK  296  A    between atoms: _775  and  _776
REMARK  297  A    between atoms: _775  and  _778
REMARK  298  A    between atoms: _778  and  _779
REMARK  299  A    between atoms: _782  and  _784
REMARK  300  A    between atoms: _784  and  _785
REMARK  301  A    between atoms: _784  and  _787
REMARK  302  A    between atoms: _787  and  _788
REMARK  303  A    between atoms: _790  and  _792
REMARK  304  A    between atoms: _792  and  _793
REMARK  305  A    between atoms: _792  and  _795
REMARK  306  A    between atoms: _795  and  _796
REMARK  307  A    between atoms: _796  and  _797
REMARK  308  A    between atoms: _797  and  _798
REMARK  309  A    between atoms: _807  and  _809
REMARK  310  A    between atoms: _809  and  _810
REMARK                            x       y       z     vdW  Elec       q    Type
REMARK                         _______ _______ _______ _____ _____    ______ ____
ROOT
ATOM      1  O   HOH     1     -30.681 -24.852 -34.645  0.00  0.00    +0.000 OA
ENDROOT
TORSDOF 0
REMARK  Name = ../refined-set-2016/3rt4/3rt4_pocket.pdb
REMARK  310 active torsions:
REMARK  status: ('A' for Active; 'I' for Inactive)
REMARK    1  A    between atoms: _1  and  _3
REMARK    2  A    between atoms: _3  and  _4
REMARK    3  A    between atoms: _3  and  _6
REMARK    4  A    between atoms: _6  and  _7
REMARK    5  A    between atoms: _7  and  _8
REMARK    6  A    between atoms: _8  and  _9
REMARK    7  A    between atoms: _18  and  _20
REMARK    8  A    between atoms: _20  and  _21
REMARK    9  A    between atoms: _20  and  _23
REMARK   10  A    between atoms: _26  and  _28
REMARK   11  A    between atoms: _28  and  _29
REMARK   12  A    between atoms: _28  and  _31
REMARK   13  A    between atoms: _31  and  _32
REMARK   14  A    between atoms: _32  and  _33
REMARK   15  A    between atoms: _33  and  _34
REMARK   16  A    between atoms: _43  and  _45
REMARK   17  A    between atoms: _45  and  _46
REMARK   18  A    between atoms: _45  and  _48
REMARK   19  A    between atoms: _48  and  _49
REMARK   20  A    between atoms: _51  and  _53
REMARK   21  A    between atoms: _53  and  _54
REMARK   22  A    between atoms: _53  and  _56
REMARK   23  A    between atoms: _56  and  _57
REMARK   24  A    between atoms: _62  and  _64
REMARK   25  A    between atoms: _64  and  _65
REMARK   26  A    between atoms: _64  and  _67
REMARK   27  A    between atoms: _67  and  _68
REMARK   28  A    between atoms: _73  and  _74
REMARK   29  A    between atoms: _76  and  _78
REMARK   30  A    between atoms: _78  and  _79
REMARK   31  A    between atoms: _78  and  _81
REMARK   32  A    between atoms: _81  and  _82
REMARK   33  A    between atoms: _82  and  _83
REMARK   34  A    between atoms: _86  and  _88
REMARK   35  A    between atoms: _88  and  _89
REMARK   36  A    between atoms: _88  and  _91
REMARK   37  A    between atoms: _91  and  _92
REMARK   38  A    between atoms: _92  and  _93
REMARK   39  A    between atoms: _93  and  _94
REMARK   40  A    between atoms: _94  and  _95
REMARK   41  A    between atoms: _99  and  _101
REMARK   42  A    between atoms: _101  and  _102
REMARK   43  A    between atoms: _101  and  _104
REMARK   44  A    between atoms: _104  and  _105
REMARK   45  A    between atoms: _110  and  _111
REMARK   46  A    between atoms: _113  and  _115
REMARK   47  A    between atoms: _115  and  _116
REMARK   48  A    between atoms: _115  and  _118
REMARK   49  A    between atoms: _118  and  _119
REMARK   50  A    between atoms: _119  and  _120
REMARK   51  A    between atoms: _120  and  _121
REMARK   52  A    between atoms: _130  and  _132
REMARK   53  A    between atoms: _132  and  _133
REMARK   54  A    between atoms: _136  and  _138
REMARK   55  A    between atoms: _138  and  _139
REMARK   56  A    between atoms: _138  and  _141
REMARK   57  A    between atoms: _141  and  _142
REMARK   58  A    between atoms: _142  and  _258
REMARK   59  A    between atoms: _143  and  _145
REMARK   60  A    between atoms: _145  and  _146
REMARK   61  A    between atoms: _145  and  _148
REMARK   62  A    between atoms: _148  and  _149
REMARK   63  A    between atoms: _149  and  _150
REMARK   64  A    between atoms: _153  and  _155
REMARK   65  A    between atoms: _155  and  _156
REMARK   66  A    between atoms: _155  and  _158
REMARK   67  A    between atoms: _158  and  _159
REMARK   68  A    between atoms: _161  and  _163
REMARK   69  A    between atoms: _163  and  _164
REMARK   70  A    between atoms: _163  and  _166
REMARK   71  A    between atoms: _166  and  _167
REMARK   72  A    between atoms: _172  and  _173
REMARK   73  A    between atoms: _175  and  _177
REMARK   74  A    between atoms: _177  and  _178
REMARK   75  A    between atoms: _177  and  _180
REMARK   76  A    between atoms: _180  and  _181
REMARK   77  A    between atoms: _186  and  _188
REMARK   78  A    between atoms: _188  and  _189
REMARK   79  A    between atoms: _188  and  _191
REMARK   80  A    between atoms: _194  and  _196
REMARK   81  A    between atoms: _196  and  _197
REMARK   82  A    between atoms: _196  and  _199
REMARK   83  A    between atoms: _199  and  _200
REMARK   84  A    between atoms: _200  and  _201
REMARK   85  A    between atoms: _201  and  _202
REMARK   86  A    between atoms: _211  and  _213
REMARK   87  A    between atoms: _213  and  _214
REMARK   88  A    between atoms: _213  and  _216
REMARK   89  A    between atoms: _216  and  _217
REMARK   90  A    between atoms: _222  and  _224
REMARK   91  A    between atoms: _224  and  _225
REMARK   92  A    between atoms: _224  and  _227
REMARK   93  A    between atoms: _227  and  _228
REMARK   94  A    between atoms: _231  and  _233
REMARK   95  A    between atoms: _233  and  _234
REMARK   96  A    between atoms: _236  and  _238
REMARK   97  A    between atoms: _238  and  _239
REMARK   98  A    between atoms: _238  and  _241
REMARK   99  A    between atoms: _241  and  _242
REMARK  100  A    between atoms: _252  and  _254
REMARK  101  A    between atoms: _254  and  _255
REMARK  102  A    between atoms: _254  and  _257
REMARK  103  A    between atoms: _257  and  _258
REMARK  104  A    between atoms: _259  and  _261
REMARK  105  A    between atoms: _261  and  _262
REMARK  106  A    between atoms: _261  and  _264
REMARK  107  A    between atoms: _264  and  _265
REMARK  108  A    between atoms: _268  and  _270
REMARK  109  A    between atoms: _270  and  _271
REMARK  110  A    between atoms: _273  and  _275
REMARK  111  A    between atoms: _275  and  _276
REMARK  112  A    between atoms: _275  and  _278
REMARK  113  A    between atoms: _278  and  _279
REMARK  114  A    between atoms: _284  and  _285
REMARK  115  A    between atoms: _287  and  _289
REMARK  116  A    between atoms: _289  and  _290
REMARK  117  A    between atoms: _289  and  _292
REMARK  118  A    between atoms: _292  and  _293
REMARK  119  A    between atoms: _293  and  _294
REMARK  120  A    between atoms: _294  and  _295
REMARK  121  A    between atoms: _304  and  _306
REMARK  122  A    between atoms: _306  and  _307
REMARK  123  A    between atoms: _306  and  _309
REMARK  124  A    between atoms: _309  and  _310
REMARK  125  A    between atoms: _310  and  _311
REMARK  126  A    between atoms: _311  and  _312
REMARK  127  A    between atoms: _312  and  _313
REMARK  128  A    between atoms: _317  and  _319
REMARK  129  A    between atoms: _319  and  _320
REMARK  130  A    between atoms: _322  and  _324
REMARK  131  A    between atoms: _324  and  _325
REMARK  132  A    between atoms: _328  and  _330
REMARK  133  A    between atoms: _330  and  _331
REMARK  134  A    between atoms: _330  and  _333
REMARK  135  A    between atoms: _333  and  _334
REMARK  136  A    between atoms: _339  and  _341
REMARK  137  A    between atoms: _341  and  _342
REMARK  138  A    between atoms: _345  and  _347
REMARK  139  A    between atoms: _347  and  _348
REMARK  140  A    between atoms: _351  and  _352
REMARK  141  A    between atoms: _357  and  _359
REMARK  142  A    between atoms: _359  and  _360
REMARK  143  A    between atoms: _359  and  _362
REMARK  144  A    between atoms: _362  and  _363
REMARK  145  A    between atoms: _366  and  _368
REMARK  146  A    between atoms: _368  and  _369
REMARK  147  A    between atoms: _368  and  _371
REMARK  148  A    between atoms: _371  and  _372
REMARK  149  A    between atoms: _382  and  _384
REMARK  150  A    between atoms: _384  and  _385
REMARK  151  A    between atoms: _384  and  _387
REMARK  152  A    between atoms: _387  and  _388
REMARK  153  A    between atoms: _394  and  _395
REMARK  154  A    between atoms: _400  and  _402
REMARK  155  A    between atoms: _402  and  _403
REMARK  156  A    between atoms: _402  and  _405
REMARK  157  A    between atoms: _405  and  _406
REMARK  158  A    between atoms: _409  and  _411
REMARK  159  A    between atoms: _411  and  _412
REMARK  160  A    between atoms: _411  and  _414
REMARK  161  A    between atoms: _414  and  _415
REMARK  162  A    between atoms: _417  and  _419
REMARK  163  A    between atoms: _419  and  _420
REMARK  164  A    between atoms: _419  and  _422
REMARK  165  A    between atoms: _422  and  _423
REMARK  166  A    between atoms: _428  and  _430
REMARK  167  A    between atoms: _430  and  _431
REMARK  168  A    between atoms: _430  and  _433
REMARK  169  A    between atoms: _436  and  _438
REMARK  170  A    between atoms: _438  and  _439
REMARK  171  A    between atoms: _438  and  _441
REMARK  172  A    between atoms: _441  and  _442
REMARK  173  A    between atoms: _442  and  _443
REMARK  174  A    between atoms: _449  and  _450
REMARK  175  A    between atoms: _455  and  _457
REMARK  176  A    between atoms: _457  and  _458
REMARK  177  A    between atoms: _457  and  _460
REMARK  178  A    between atoms: _460  and  _461
REMARK  179  A    between atoms: _464  and  _466
REMARK  180  A    between atoms: _466  and  _467
REMARK  181  A    between atoms: _466  and  _469
REMARK  182  A    between atoms: _469  and  _470
REMARK  183  A    between atoms: _473  and  _475
REMARK  184  A    between atoms: _475  and  _476
REMARK  185  A    between atoms: _475  and  _478
REMARK  186  A    between atoms: _478  and  _479
REMARK  187  A    between atoms: _481  and  _483
REMARK  188  A    between atoms: _483  and  _484
REMARK  189  A    between atoms: _483  and  _486
REMARK  190  A    between atoms: _486  and  _487
REMARK  191  A    between atoms: _492  and  _493
REMARK  192  A    between atoms: _495  and  _497
REMARK  193  A    between atoms: _497  and  _498
REMARK  194  A    between atoms: _497  and  _500
REMARK  195  A    between atoms: _500  and  _501
REMARK  196  A    between atoms: _506  and  _508
REMARK  197  A    between atoms: _508  and  _509
REMARK  198  A    between atoms: _508  and  _511
REMARK  199  A    between atoms: _511  and  _512
REMARK  200  A    between atoms: _515  and  _517
REMARK  201  A    between atoms: _517  and  _518
REMARK  202  A    between atoms: _517  and  _520
REMARK  203  A    between atoms: _520  and  _521
REMARK  204  A    between atoms: _531  and  _533
REMARK  205  A    between atoms: _533  and  _534
REMARK  206  A    between atoms: _536  and  _538
REMARK  207  A    between atoms: _538  and  _539
REMARK  208  A    between atoms: _538  and  _541
REMARK  209  A    between atoms: _541  and  _542
REMARK  210  A    between atoms: _547  and  _548
REMARK  211  A    between atoms: _550  and  _552
REMARK  212  A    between atoms: _552  and  _553
REMARK  213  A    between atoms: _552  and  _555
REMARK  214  A    between atoms: _555  and  _556
REMARK  215  A    between atoms: _556  and  _557
REMARK  216  A    between atoms: _557  and  _558
REMARK  217  A    between atoms: _567  and  _569
REMARK  218  A    between atoms: _569  and  _570
REMARK  219  A    between atoms: _569  and  _572
REMARK  220  A    between atoms: _572  and  _573
REMARK  221  A    between atoms: _573  and  _574
REMARK  222  A    between atoms: _574  and  _575
REMARK  223  A    between atoms: _575  and  _576
REMARK  224  A    between atoms: _580  and  _582
REMARK  225  A    between atoms: _582  and  _583
REMARK  226  A    between atoms: _585  and  _587
REMARK  227  A    between atoms: _587  and  _588
REMARK  228  A    between atoms: _591  and  _593
REMARK  229  A    between atoms: _593  and  _594
REMARK  230  A    between atoms: _593  and  _596
REMARK  231  A    between atoms: _596  and  _597
REMARK  232  A    between atoms: _602  and  _604
REMARK  233  A    between atoms: _604  and  _605
REMARK  234  A    between atoms: _608  and  _610
REMARK  235  A    between atoms: _610  and  _611
REMARK  236  A    between atoms: _614  and  _615
REMARK  237  A    between atoms: _620  and  _622
REMARK  238  A    between atoms: _622  and  _623
REMARK  239  A    between atoms: _622  and  _625
REMARK  240  A    between atoms: _625  and  _626
REMARK  241  A    between atoms: _629  and  _631
REMARK  242  A    between atoms: _631  and  _632
REMARK  243  A    between atoms: _631  and  _634
REMARK  244  A    between atoms: _634  and  _635
REMARK  245  A    between atoms: _645  and  _647
REMARK  246  A    between atoms: _647  and  _648
REMARK  247  A    between atoms: _647  and  _650
REMARK  248  A    between atoms: _650  and  _651
REMARK  249  A    between atoms: _657  and  _658
REMARK  250  A    between atoms: _663  and  _665
REMARK  251  A    between atoms: _665  and  _666
REMARK  252  A    between atoms: _665  and  _668
REMARK  253  A    between atoms: _668  and  _669
REMARK  254  A    between atoms: _672  and  _674
REMARK  255  A    between atoms: _674  and  _675
REMARK  256  A    between atoms: _674  and  _677
REMARK  257  A    between atoms: _677  and  _678
REMARK  258  A    between atoms: _678  and  _679
REMARK  259  A    between atoms: _682  and  _684
REMARK  260  A    between atoms: _684  and  _685
REMARK  261  A    between atoms: _684  and  _687
REMARK  262  A    between atoms: _687  and  _688
REMARK  263  A    between atoms: _688  and  _689
REMARK  264  A    between atoms: _689  and  _690
REMARK  265  A    between atoms: _690  and  _691
REMARK  266  A    between atoms: _695  and  _697
REMARK  267  A    between atoms: _697  and  _698
REMARK  268  A    between atoms: _700  and  _702
REMARK  269  A    between atoms: _702  and  _703
REMARK  270  A    between atoms: _702  and  _705
REMARK  271  A    between atoms: _705  and  _706
REMARK  272  A    between atoms: _711  and  _713
REMARK  273  A    between atoms: _713  and  _714
REMARK  274  A    between atoms: _713  and  _716
REMARK  275  A    between atoms: _716  and  _717
REMARK  276  A    between atoms: _717  and  _718
REMARK  277  A    between atoms: _718  and  _719
REMARK  278  A    between atoms: _728  and  _730
REMARK  279  A    between atoms: _730  and  _731
REMARK  280  A    between atoms: _730  and  _733
REMARK  281  A    between atoms: _733  and  _734
REMARK  282  A    between atoms: _737  and  _739
REMARK  283  A    between atoms: _739  and  _740
REMARK  284  A    between atoms: _739  and  _742
REMARK  285  A    between atoms: _745  and  _747
REMARK  286  A    between atoms: _747  and  _748
REMARK  287  A    between atoms: _747  and  _750
REMARK  288  A    between atoms: _750  and  _751
REMARK  289  A    between atoms: _751  and  _752
REMARK  290  A    between atoms: _758  and  _759
REMARK  291  A    between atoms: _764  and  _766
REMARK  292  A    between atoms: _766  and  _767
REMARK  293  A    between atoms: _766  and  _769
REMARK  294  A    between atoms: _769  and  _770
REMARK  295  A    between atoms: _773  and  _775
REMARK  296  A    between atoms: _775  and  _776
REMARK  297  A    between atoms: _775  and  _778
REMARK  298  A    between atoms: _778  and  _779
REMARK  299  A    between atoms: _782  and  _784
REMARK  300  A    between atoms: _784  and  _785
REMARK  301  A    between atoms: _784  and  _787
REMARK  302  A    between atoms: _787  and  _788
REMARK  303  A    between atoms: _790  and  _792
REMARK  304  A    between atoms: _792  and  _793
REMARK  305  A    between atoms: _792  and  _795
REMARK  306  A    between atoms: _795  and  _796
REMARK  307  A    between atoms: _796  and  _797
REMARK  308  A    between atoms: _797  and  _798
REMARK  309  A    between atoms: _807  and  _809
REMARK  310  A    between atoms: _809  and  _810
REMARK                            x       y       z     vdW  Elec       q    Type
REMARK                         _______ _______ _______ _____ _____    ______ ____
ROOT
ATOM      1  O   HOH     1     -32.174 -27.326 -34.926  0.00  0.00    +0.000 OA
ENDROOT
TORSDOF 0
REMARK  Name = ../refined-set-2016/3rt4/3rt4_pocket.pdb
REMARK  310 active torsions:
REMARK  status: ('A' for Active; 'I' for Inactive)
REMARK    1  A    between atoms: _1  and  _3
REMARK    2  A    between atoms: _3  and  _4
REMARK    3  A    between atoms: _3  and  _6
REMARK    4  A    between atoms: _6  and  _7
REMARK    5  A    between atoms: _7  and  _8
REMARK    6  A    between atoms: _8  and  _9
REMARK    7  A    between atoms: _18  and  _20
REMARK    8  A    between atoms: _20  and  _21
REMARK    9  A    between atoms: _20  and  _23
REMARK   10  A    between atoms: _26  and  _28
REMARK   11  A    between atoms: _28  and  _29
REMARK   12  A    between atoms: _28  and  _31
REMARK   13  A    between atoms: _31  and  _32
REMARK   14  A    between atoms: _32  and  _33
REMARK   15  A    between atoms: _33  and  _34
REMARK   16  A    between atoms: _43  and  _45
REMARK   17  A    between atoms: _45  and  _46
REMARK   18  A    between atoms: _45  and  _48
REMARK   19  A    between atoms: _48  and  _49
REMARK   20  A    between atoms: _51  and  _53
REMARK   21  A    between atoms: _53  and  _54
REMARK   22  A    between atoms: _53  and  _56
REMARK   23  A    between atoms: _56  and  _57
REMARK   24  A    between atoms: _62  and  _64
REMARK   25  A    between atoms: _64  and  _65
REMARK   26  A    between atoms: _64  and  _67
REMARK   27  A    between atoms: _67  and  _68
REMARK   28  A    between atoms: _73  and  _74
REMARK   29  A    between atoms: _76  and  _78
REMARK   30  A    between atoms: _78  and  _79
REMARK   31  A    between atoms: _78  and  _81
REMARK   32  A    between atoms: _81  and  _82
REMARK   33  A    between atoms: _82  and  _83
REMARK   34  A    between atoms: _86  and  _88
REMARK   35  A    between atoms: _88  and  _89
REMARK   36  A    between atoms: _88  and  _91
REMARK   37  A    between atoms: _91  and  _92
REMARK   38  A    between atoms: _92  and  _93
REMARK   39  A    between atoms: _93  and  _94
REMARK   40  A    between atoms: _94  and  _95
REMARK   41  A    between atoms: _99  and  _101
REMARK   42  A    between atoms: _101  and  _102
REMARK   43  A    between atoms: _101  and  _104
REMARK   44  A    between atoms: _104  and  _105
REMARK   45  A    between atoms: _110  and  _111
REMARK   46  A    between atoms: _113  and  _115
REMARK   47  A    between atoms: _115  and  _116
REMARK   48  A    between atoms: _115  and  _118
REMARK   49  A    between atoms: _118  and  _119
REMARK   50  A    between atoms: _119  and  _120
REMARK   51  A    between atoms: _120  and  _121
REMARK   52  A    between atoms: _130  and  _132
REMARK   53  A    between atoms: _132  and  _133
REMARK   54  A    between atoms: _136  and  _138
REMARK   55  A    between atoms: _138  and  _139
REMARK   56  A    between atoms: _138  and  _141
REMARK   57  A    between atoms: _141  and  _142
REMARK   58  A    between atoms: _142  and  _258
REMARK   59  A    between atoms: _143  and  _145
REMARK   60  A    between atoms: _145  and  _146
REMARK   61  A    between atoms: _145  and  _148
REMARK   62  A    between atoms: _148  and  _149
REMARK   63  A    between atoms: _149  and  _150
REMARK   64  A    between atoms: _153  and  _155
REMARK   65  A    between atoms: _155  and  _156
REMARK   66  A    between atoms: _155  and  _158
REMARK   67  A    between atoms: _158  and  _159
REMARK   68  A    between atoms: _161  and  _163
REMARK   69  A    between atoms: _163  and  _164
REMARK   70  A    between atoms: _163  and  _166
REMARK   71  A    between atoms: _166  and  _167
REMARK   72  A    between atoms: _172  and  _173
REMARK   73  A    between atoms: _175  and  _177
REMARK   74  A    between atoms: _177  and  _178
REMARK   75  A    between atoms: _177  and  _180
REMARK   76  A    between atoms: _180  and  _181
REMARK   77  A    between atoms: _186  and  _188
REMARK   78  A    between atoms: _188  and  _189
REMARK   79  A    between atoms: _188  and  _191
REMARK   80  A    between atoms: _194  and  _196
REMARK   81  A    between atoms: _196  and  _197
REMARK   82  A    between atoms: _196  and  _199
REMARK   83  A    between atoms: _199  and  _200
REMARK   84  A    between atoms: _200  and  _201
REMARK   85  A    between atoms: _201  and  _202
REMARK   86  A    between atoms: _211  and  _213
REMARK   87  A    between atoms: _213  and  _214
REMARK   88  A    between atoms: _213  and  _216
REMARK   89  A    between atoms: _216  and  _217
REMARK   90  A    between atoms: _222  and  _224
REMARK   91  A    between atoms: _224  and  _225
REMARK   92  A    between atoms: _224  and  _227
REMARK   93  A    between atoms: _227  and  _228
REMARK   94  A    between atoms: _231  and  _233
REMARK   95  A    between atoms: _233  and  _234
REMARK   96  A    between atoms: _236  and  _238
REMARK   97  A    between atoms: _238  and  _239
REMARK   98  A    between atoms: _238  and  _241
REMARK   99  A    between atoms: _241  and  _242
REMARK  100  A    between atoms: _252  and  _254
REMARK  101  A    between atoms: _254  and  _255
REMARK  102  A    between atoms: _254  and  _257
REMARK  103  A    between atoms: _257  and  _258
REMARK  104  A    between atoms: _259  and  _261
REMARK  105  A    between atoms: _261  and  _262
REMARK  106  A    between atoms: _261  and  _264
REMARK  107  A    between atoms: _264  and  _265
REMARK  108  A    between atoms: _268  and  _270
REMARK  109  A    between atoms: _270  and  _271
REMARK  110  A    between atoms: _273  and  _275
REMARK  111  A    between atoms: _275  and  _276
REMARK  112  A    between atoms: _275  and  _278
REMARK  113  A    between atoms: _278  and  _279
REMARK  114  A    between atoms: _284  and  _285
REMARK  115  A    between atoms: _287  and  _289
REMARK  116  A    between atoms: _289  and  _290
REMARK  117  A    between atoms: _289  and  _292
REMARK  118  A    between atoms: _292  and  _293
REMARK  119  A    between atoms: _293  and  _294
REMARK  120  A    between atoms: _294  and  _295
REMARK  121  A    between atoms: _304  and  _306
REMARK  122  A    between atoms: _306  and  _307
REMARK  123  A    between atoms: _306  and  _309
REMARK  124  A    between atoms: _309  and  _310
REMARK  125  A    between atoms: _310  and  _311
REMARK  126  A    between atoms: _311  and  _312
REMARK  127  A    between atoms: _312  and  _313
REMARK  128  A    between atoms: _317  and  _319
REMARK  129  A    between atoms: _319  and  _320
REMARK  130  A    between atoms: _322  and  _324
REMARK  131  A    between atoms: _324  and  _325
REMARK  132  A    between atoms: _328  and  _330
REMARK  133  A    between atoms: _330  and  _331
REMARK  134  A    between atoms: _330  and  _333
REMARK  135  A    between atoms: _333  and  _334
REMARK  136  A    between atoms: _339  and  _341
REMARK  137  A    between atoms: _341  and  _342
REMARK  138  A    between atoms: _345  and  _347
REMARK  139  A    between atoms: _347  and  _348
REMARK  140  A    between atoms: _351  and  _352
REMARK  141  A    between atoms: _357  and  _359
REMARK  142  A    between atoms: _359  and  _360
REMARK  143  A    between atoms: _359  and  _362
REMARK  144  A    between atoms: _362  and  _363
REMARK  145  A    between atoms: _366  and  _368
REMARK  146  A    between atoms: _368  and  _369
REMARK  147  A    between atoms: _368  and  _371
REMARK  148  A    between atoms: _371  and  _372
REMARK  149  A    between atoms: _382  and  _384
REMARK  150  A    between atoms: _384  and  _385
REMARK  151  A    between atoms: _384  and  _387
REMARK  152  A    between atoms: _387  and  _388
REMARK  153  A    between atoms: _394  and  _395
REMARK  154  A    between atoms: _400  and  _402
REMARK  155  A    between atoms: _402  and  _403
REMARK  156  A    between atoms: _402  and  _405
REMARK  157  A    between atoms: _405  and  _406
REMARK  158  A    between atoms: _409  and  _411
REMARK  159  A    between atoms: _411  and  _412
REMARK  160  A    between atoms: _411  and  _414
REMARK  161  A    between atoms: _414  and  _415
REMARK  162  A    between atoms: _417  and  _419
REMARK  163  A    between atoms: _419  and  _420
REMARK  164  A    between atoms: _419  and  _422
REMARK  165  A    between atoms: _422  and  _423
REMARK  166  A    between atoms: _428  and  _430
REMARK  167  A    between atoms: _430  and  _431
REMARK  168  A    between atoms: _430  and  _433
REMARK  169  A    between atoms: _436  and  _438
REMARK  170  A    between atoms: _438  and  _439
REMARK  171  A    between atoms: _438  and  _441
REMARK  172  A    between atoms: _441  and  _442
REMARK  173  A    between atoms: _442  and  _443
REMARK  174  A    between atoms: _449  and  _450
REMARK  175  A    between atoms: _455  and  _457
REMARK  176  A    between atoms: _457  and  _458
REMARK  177  A    between atoms: _457  and  _460
REMARK  178  A    between atoms: _460  and  _461
REMARK  179  A    between atoms: _464  and  _466
REMARK  180  A    between atoms: _466  and  _467
REMARK  181  A    between atoms: _466  and  _469
REMARK  182  A    between atoms: _469  and  _470
REMARK  183  A    between atoms: _473  and  _475
REMARK  184  A    between atoms: _475  and  _476
REMARK  185  A    between atoms: _475  and  _478
REMARK  186  A    between atoms: _478  and  _479
REMARK  187  A    between atoms: _481  and  _483
REMARK  188  A    between atoms: _483  and  _484
REMARK  189  A    between atoms: _483  and  _486
REMARK  190  A    between atoms: _486  and  _487
REMARK  191  A    between atoms: _492  and  _493
REMARK  192  A    between atoms: _495  and  _497
REMARK  193  A    between atoms: _497  and  _498
REMARK  194  A    between atoms: _497  and  _500
REMARK  195  A    between atoms: _500  and  _501
REMARK  196  A    between atoms: _506  and  _508
REMARK  197  A    between atoms: _508  and  _509
REMARK  198  A    between atoms: _508  and  _511
REMARK  199  A    between atoms: _511  and  _512
REMARK  200  A    between atoms: _515  and  _517
REMARK  201  A    between atoms: _517  and  _518
REMARK  202  A    between atoms: _517  and  _520
REMARK  203  A    between atoms: _520  and  _521
REMARK  204  A    between atoms: _531  and  _533
REMARK  205  A    between atoms: _533  and  _534
REMARK  206  A    between atoms: _536  and  _538
REMARK  207  A    between atoms: _538  and  _539
REMARK  208  A    between atoms: _538  and  _541
REMARK  209  A    between atoms: _541  and  _542
REMARK  210  A    between atoms: _547  and  _548
REMARK  211  A    between atoms: _550  and  _552
REMARK  212  A    between atoms: _552  and  _553
REMARK  213  A    between atoms: _552  and  _555
REMARK  214  A    between atoms: _555  and  _556
REMARK  215  A    between atoms: _556  and  _557
REMARK  216  A    between atoms: _557  and  _558
REMARK  217  A    between atoms: _567  and  _569
REMARK  218  A    between atoms: _569  and  _570
REMARK  219  A    between atoms: _569  and  _572
REMARK  220  A    between atoms: _572  and  _573
REMARK  221  A    between atoms: _573  and  _574
REMARK  222  A    between atoms: _574  and  _575
REMARK  223  A    between atoms: _575  and  _576
REMARK  224  A    between atoms: _580  and  _582
REMARK  225  A    between atoms: _582  and  _583
REMARK  226  A    between atoms: _585  and  _587
REMARK  227  A    between atoms: _587  and  _588
REMARK  228  A    between atoms: _591  and  _593
REMARK  229  A    between atoms: _593  and  _594
REMARK  230  A    between atoms: _593  and  _596
REMARK  231  A    between atoms: _596  and  _597
REMARK  232  A    between atoms: _602  and  _604
REMARK  233  A    between atoms: _604  and  _605
REMARK  234  A    between atoms: _608  and  _610
REMARK  235  A    between atoms: _610  and  _611
REMARK  236  A    between atoms: _614  and  _615
REMARK  237  A    between atoms: _620  and  _622
REMARK  238  A    between atoms: _622  and  _623
REMARK  239  A    between atoms: _622  and  _625
REMARK  240  A    between atoms: _625  and  _626
REMARK  241  A    between atoms: _629  and  _631
REMARK  242  A    between atoms: _631  and  _632
REMARK  243  A    between atoms: _631  and  _634
REMARK  244  A    between atoms: _634  and  _635
REMARK  245  A    between atoms: _645  and  _647
REMARK  246  A    between atoms: _647  and  _648
REMARK  247  A    between atoms: _647  and  _650
REMARK  248  A    between atoms: _650  and  _651
REMARK  249  A    between atoms: _657  and  _658
REMARK  250  A    between atoms: _663  and  _665
REMARK  251  A    between atoms: _665  and  _666
REMARK  252  A    between atoms: _665  and  _668
REMARK  253  A    between atoms: _668  and  _669
REMARK  254  A    between atoms: _672  and  _674
REMARK  255  A    between atoms: _674  and  _675
REMARK  256  A    between atoms: _674  and  _677
REMARK  257  A    between atoms: _677  and  _678
REMARK  258  A    between atoms: _678  and  _679
REMARK  259  A    between atoms: _682  and  _684
REMARK  260  A    between atoms: _684  and  _685
REMARK  261  A    between atoms: _684  and  _687
REMARK  262  A    between atoms: _687  and  _688
REMARK  263  A    between atoms: _688  and  _689
REMARK  264  A    between atoms: _689  and  _690
REMARK  265  A    between atoms: _690  and  _691
REMARK  266  A    between atoms: _695  and  _697
REMARK  267  A    between atoms: _697  and  _698
REMARK  268  A    between atoms: _700  and  _702
REMARK  269  A    between atoms: _702  and  _703
REMARK  270  A    between atoms: _702  and  _705
REMARK  271  A    between atoms: _705  and  _706
REMARK  272  A    between atoms: _711  and  _713
REMARK  273  A    between atoms: _713  and  _714
REMARK  274  A    between atoms: _713  and  _716
REMARK  275  A    between atoms: _716  and  _717
REMARK  276  A    between atoms: _717  and  _718
REMARK  277  A    between atoms: _718  and  _719
REMARK  278  A    between atoms: _728  and  _730
REMARK  279  A    between atoms: _730  and  _731
REMARK  280  A    between atoms: _730  and  _733
REMARK  281  A    between atoms: _733  and  _734
REMARK  282  A    between atoms: _737  and  _739
REMARK  283  A    between atoms: _739  and  _740
REMARK  284  A    between atoms: _739  and  _742
REMARK  285  A    between atoms: _745  and  _747
REMARK  286  A    between atoms: _747  and  _748
REMARK  287  A    between atoms: _747  and  _750
REMARK  288  A    between atoms: _750  and  _751
REMARK  289  A    between atoms: _751  and  _752
REMARK  290  A    between atoms: _758  and  _759
REMARK  291  A    between atoms: _764  and  _766
REMARK  292  A    between atoms: _766  and  _767
REMARK  293  A    between atoms: _766  and  _769
REMARK  294  A    between atoms: _769  and  _770
REMARK  295  A    between atoms: _773  and  _775
REMARK  296  A    between atoms: _775  and  _776
REMARK  297  A    between atoms: _775  and  _778
REMARK  298  A    between atoms: _778  and  _779
REMARK  299  A    between atoms: _782  and  _784
REMARK  300  A    between atoms: _784  and  _785
REMARK  301  A    between atoms: _784  and  _787
REMARK  302  A    between atoms: _787  and  _788
REMARK  303  A    between atoms: _790  and  _792
REMARK  304  A    between atoms: _792  and  _793
REMARK  305  A    between atoms: _792  and  _795
REMARK  306  A    between atoms: _795  and  _796
REMARK  307  A    between atoms: _796  and  _797
REMARK  308  A    between atoms: _797  and  _798
REMARK  309  A    between atoms: _807  and  _809
REMARK  310  A    between atoms: _809  and  _810
REMARK                            x       y       z     vdW  Elec       q    Type
REMARK                         _______ _______ _______ _____ _____    ______ ____
ROOT
ATOM      1  O   HOH     1     -25.201 -35.749 -26.172  0.00  0.00    +0.000 OA
ENDROOT
TORSDOF 0
REMARK  Name = ../refined-set-2016/3rt4/3rt4_pocket.pdb
REMARK  310 active torsions:
REMARK  status: ('A' for Active; 'I' for Inactive)
REMARK    1  A    between atoms: _1  and  _3
REMARK    2  A    between atoms: _3  and  _4
REMARK    3  A    between atoms: _3  and  _6
REMARK    4  A    between atoms: _6  and  _7
REMARK    5  A    between atoms: _7  and  _8
REMARK    6  A    between atoms: _8  and  _9
REMARK    7  A    between atoms: _18  and  _20
REMARK    8  A    between atoms: _20  and  _21
REMARK    9  A    between atoms: _20  and  _23
REMARK   10  A    between atoms: _26  and  _28
REMARK   11  A    between atoms: _28  and  _29
REMARK   12  A    between atoms: _28  and  _31
REMARK   13  A    between atoms: _31  and  _32
REMARK   14  A    between atoms: _32  and  _33
REMARK   15  A    between atoms: _33  and  _34
REMARK   16  A    between atoms: _43  and  _45
REMARK   17  A    between atoms: _45  and  _46
REMARK   18  A    between atoms: _45  and  _48
REMARK   19  A    between atoms: _48  and  _49
REMARK   20  A    between atoms: _51  and  _53
REMARK   21  A    between atoms: _53  and  _54
REMARK   22  A    between atoms: _53  and  _56
REMARK   23  A    between atoms: _56  and  _57
REMARK   24  A    between atoms: _62  and  _64
REMARK   25  A    between atoms: _64  and  _65
REMARK   26  A    between atoms: _64  and  _67
REMARK   27  A    between atoms: _67  and  _68
REMARK   28  A    between atoms: _73  and  _74
REMARK   29  A    between atoms: _76  and  _78
REMARK   30  A    between atoms: _78  and  _79
REMARK   31  A    between atoms: _78  and  _81
REMARK   32  A    between atoms: _81  and  _82
REMARK   33  A    between atoms: _82  and  _83
REMARK   34  A    between atoms: _86  and  _88
REMARK   35  A    between atoms: _88  and  _89
REMARK   36  A    between atoms: _88  and  _91
REMARK   37  A    between atoms: _91  and  _92
REMARK   38  A    between atoms: _92  and  _93
REMARK   39  A    between atoms: _93  and  _94
REMARK   40  A    between atoms: _94  and  _95
REMARK   41  A    between atoms: _99  and  _101
REMARK   42  A    between atoms: _101  and  _102
REMARK   43  A    between atoms: _101  and  _104
REMARK   44  A    between atoms: _104  and  _105
REMARK   45  A    between atoms: _110  and  _111
REMARK   46  A    between atoms: _113  and  _115
REMARK   47  A    between atoms: _115  and  _116
REMARK   48  A    between atoms: _115  and  _118
REMARK   49  A    between atoms: _118  and  _119
REMARK   50  A    between atoms: _119  and  _120
REMARK   51  A    between atoms: _120  and  _121
REMARK   52  A    between atoms: _130  and  _132
REMARK   53  A    between atoms: _132  and  _133
REMARK   54  A    between atoms: _136  and  _138
REMARK   55  A    between atoms: _138  and  _139
REMARK   56  A    between atoms: _138  and  _141
REMARK   57  A    between atoms: _141  and  _142
REMARK   58  A    between atoms: _142  and  _258
REMARK   59  A    between atoms: _143  and  _145
REMARK   60  A    between atoms: _145  and  _146
REMARK   61  A    between atoms: _145  and  _148
REMARK   62  A    between atoms: _148  and  _149
REMARK   63  A    between atoms: _149  and  _150
REMARK   64  A    between atoms: _153  and  _155
REMARK   65  A    between atoms: _155  and  _156
REMARK   66  A    between atoms: _155  and  _158
REMARK   67  A    between atoms: _158  and  _159
REMARK   68  A    between atoms: _161  and  _163
REMARK   69  A    between atoms: _163  and  _164
REMARK   70  A    between atoms: _163  and  _166
REMARK   71  A    between atoms: _166  and  _167
REMARK   72  A    between atoms: _172  and  _173
REMARK   73  A    between atoms: _175  and  _177
REMARK   74  A    between atoms: _177  and  _178
REMARK   75  A    between atoms: _177  and  _180
REMARK   76  A    between atoms: _180  and  _181
REMARK   77  A    between atoms: _186  and  _188
REMARK   78  A    between atoms: _188  and  _189
REMARK   79  A    between atoms: _188  and  _191
REMARK   80  A    between atoms: _194  and  _196
REMARK   81  A    between atoms: _196  and  _197
REMARK   82  A    between atoms: _196  and  _199
REMARK   83  A    between atoms: _199  and  _200
REMARK   84  A    between atoms: _200  and  _201
REMARK   85  A    between atoms: _201  and  _202
REMARK   86  A    between atoms: _211  and  _213
REMARK   87  A    between atoms: _213  and  _214
REMARK   88  A    between atoms: _213  and  _216
REMARK   89  A    between atoms: _216  and  _217
REMARK   90  A    between atoms: _222  and  _224
REMARK   91  A    between atoms: _224  and  _225
REMARK   92  A    between atoms: _224  and  _227
REMARK   93  A    between atoms: _227  and  _228
REMARK   94  A    between atoms: _231  and  _233
REMARK   95  A    between atoms: _233  and  _234
REMARK   96  A    between atoms: _236  and  _238
REMARK   97  A    between atoms: _238  and  _239
REMARK   98  A    between atoms: _238  and  _241
REMARK   99  A    between atoms: _241  and  _242
REMARK  100  A    between atoms: _252  and  _254
REMARK  101  A    between atoms: _254  and  _255
REMARK  102  A    between atoms: _254  and  _257
REMARK  103  A    between atoms: _257  and  _258
REMARK  104  A    between atoms: _259  and  _261
REMARK  105  A    between atoms: _261  and  _262
REMARK  106  A    between atoms: _261  and  _264
REMARK  107  A    between atoms: _264  and  _265
REMARK  108  A    between atoms: _268  and  _270
REMARK  109  A    between atoms: _270  and  _271
REMARK  110  A    between atoms: _273  and  _275
REMARK  111  A    between atoms: _275  and  _276
REMARK  112  A    between atoms: _275  and  _278
REMARK  113  A    between atoms: _278  and  _279
REMARK  114  A    between atoms: _284  and  _285
REMARK  115  A    between atoms: _287  and  _289
REMARK  116  A    between atoms: _289  and  _290
REMARK  117  A    between atoms: _289  and  _292
REMARK  118  A    between atoms: _292  and  _293
REMARK  119  A    between atoms: _293  and  _294
REMARK  120  A    between atoms: _294  and  _295
REMARK  121  A    between atoms: _304  and  _306
REMARK  122  A    between atoms: _306  and  _307
REMARK  123  A    between atoms: _306  and  _309
REMARK  124  A    between atoms: _309  and  _310
REMARK  125  A    between atoms: _310  and  _311
REMARK  126  A    between atoms: _311  and  _312
REMARK  127  A    between atoms: _312  and  _313
REMARK  128  A    between atoms: _317  and  _319
REMARK  129  A    between atoms: _319  and  _320
REMARK  130  A    between atoms: _322  and  _324
REMARK  131  A    between atoms: _324  and  _325
REMARK  132  A    between atoms: _328  and  _330
REMARK  133  A    between atoms: _330  and  _331
REMARK  134  A    between atoms: _330  and  _333
REMARK  135  A    between atoms: _333  and  _334
REMARK  136  A    between atoms: _339  and  _341
REMARK  137  A    between atoms: _341  and  _342
REMARK  138  A    between atoms: _345  and  _347
REMARK  139  A    between atoms: _347  and  _348
REMARK  140  A    between atoms: _351  and  _352
REMARK  141  A    between atoms: _357  and  _359
REMARK  142  A    between atoms: _359  and  _360
REMARK  143  A    between atoms: _359  and  _362
REMARK  144  A    between atoms: _362  and  _363
REMARK  145  A    between atoms: _366  and  _368
REMARK  146  A    between atoms: _368  and  _369
REMARK  147  A    between atoms: _368  and  _371
REMARK  148  A    between atoms: _371  and  _372
REMARK  149  A    between atoms: _382  and  _384
REMARK  150  A    between atoms: _384  and  _385
REMARK  151  A    between atoms: _384  and  _387
REMARK  152  A    between atoms: _387  and  _388
REMARK  153  A    between atoms: _394  and  _395
REMARK  154  A    between atoms: _400  and  _402
REMARK  155  A    between atoms: _402  and  _403
REMARK  156  A    between atoms: _402  and  _405
REMARK  157  A    between atoms: _405  and  _406
REMARK  158  A    between atoms: _409  and  _411
REMARK  159  A    between atoms: _411  and  _412
REMARK  160  A    between atoms: _411  and  _414
REMARK  161  A    between atoms: _414  and  _415
REMARK  162  A    between atoms: _417  and  _419
REMARK  163  A    between atoms: _419  and  _420
REMARK  164  A    between atoms: _419  and  _422
REMARK  165  A    between atoms: _422  and  _423
REMARK  166  A    between atoms: _428  and  _430
REMARK  167  A    between atoms: _430  and  _431
REMARK  168  A    between atoms: _430  and  _433
REMARK  169  A    between atoms: _436  and  _438
REMARK  170  A    between atoms: _438  and  _439
REMARK  171  A    between atoms: _438  and  _441
REMARK  172  A    between atoms: _441  and  _442
REMARK  173  A    between atoms: _442  and  _443
REMARK  174  A    between atoms: _449  and  _450
REMARK  175  A    between atoms: _455  and  _457
REMARK  176  A    between atoms: _457  and  _458
REMARK  177  A    between atoms: _457  and  _460
REMARK  178  A    between atoms: _460  and  _461
REMARK  179  A    between atoms: _464  and  _466
REMARK  180  A    between atoms: _466  and  _467
REMARK  181  A    between atoms: _466  and  _469
REMARK  182  A    between atoms: _469  and  _470
REMARK  183  A    between atoms: _473  and  _475
REMARK  184  A    between atoms: _475  and  _476
REMARK  185  A    between atoms: _475  and  _478
REMARK  186  A    between atoms: _478  and  _479
REMARK  187  A    between atoms: _481  and  _483
REMARK  188  A    between atoms: _483  and  _484
REMARK  189  A    between atoms: _483  and  _486
REMARK  190  A    between atoms: _486  and  _487
REMARK  191  A    between atoms: _492  and  _493
REMARK  192  A    between atoms: _495  and  _497
REMARK  193  A    between atoms: _497  and  _498
REMARK  194  A    between atoms: _497  and  _500
REMARK  195  A    between atoms: _500  and  _501
REMARK  196  A    between atoms: _506  and  _508
REMARK  197  A    between atoms: _508  and  _509
REMARK  198  A    between atoms: _508  and  _511
REMARK  199  A    between atoms: _511  and  _512
REMARK  200  A    between atoms: _515  and  _517
REMARK  201  A    between atoms: _517  and  _518
REMARK  202  A    between atoms: _517  and  _520
REMARK  203  A    between atoms: _520  and  _521
REMARK  204  A    between atoms: _531  and  _533
REMARK  205  A    between atoms: _533  and  _534
REMARK  206  A    between atoms: _536  and  _538
REMARK  207  A    between atoms: _538  and  _539
REMARK  208  A    between atoms: _538  and  _541
REMARK  209  A    between atoms: _541  and  _542
REMARK  210  A    between atoms: _547  and  _548
REMARK  211  A    between atoms: _550  and  _552
REMARK  212  A    between atoms: _552  and  _553
REMARK  213  A    between atoms: _552  and  _555
REMARK  214  A    between atoms: _555  and  _556
REMARK  215  A    between atoms: _556  and  _557
REMARK  216  A    between atoms: _557  and  _558
REMARK  217  A    between atoms: _567  and  _569
REMARK  218  A    between atoms: _569  and  _570
REMARK  219  A    between atoms: _569  and  _572
REMARK  220  A    between atoms: _572  and  _573
REMARK  221  A    between atoms: _573  and  _574
REMARK  222  A    between atoms: _574  and  _575
REMARK  223  A    between atoms: _575  and  _576
REMARK  224  A    between atoms: _580  and  _582
REMARK  225  A    between atoms: _582  and  _583
REMARK  226  A    between atoms: _585  and  _587
REMARK  227  A    between atoms: _587  and  _588
REMARK  228  A    between atoms: _591  and  _593
REMARK  229  A    between atoms: _593  and  _594
REMARK  230  A    between atoms: _593  and  _596
REMARK  231  A    between atoms: _596  and  _597
REMARK  232  A    between atoms: _602  and  _604
REMARK  233  A    between atoms: _604  and  _605
REMARK  234  A    between atoms: _608  and  _610
REMARK  235  A    between atoms: _610  and  _611
REMARK  236  A    between atoms: _614  and  _615
REMARK  237  A    between atoms: _620  and  _622
REMARK  238  A    between atoms: _622  and  _623
REMARK  239  A    between atoms: _622  and  _625
REMARK  240  A    between atoms: _625  and  _626
REMARK  241  A    between atoms: _629  and  _631
REMARK  242  A    between atoms: _631  and  _632
REMARK  243  A    between atoms: _631  and  _634
REMARK  244  A    between atoms: _634  and  _635
REMARK  245  A    between atoms: _645  and  _647
REMARK  246  A    between atoms: _647  and  _648
REMARK  247  A    between atoms: _647  and  _650
REMARK  248  A    between atoms: _650  and  _651
REMARK  249  A    between atoms: _657  and  _658
REMARK  250  A    between atoms: _663  and  _665
REMARK  251  A    between atoms: _665  and  _666
REMARK  252  A    between atoms: _665  and  _668
REMARK  253  A    between atoms: _668  and  _669
REMARK  254  A    between atoms: _672  and  _674
REMARK  255  A    between atoms: _674  and  _675
REMARK  256  A    between atoms: _674  and  _677
REMARK  257  A    between atoms: _677  and  _678
REMARK  258  A    between atoms: _678  and  _679
REMARK  259  A    between atoms: _682  and  _684
REMARK  260  A    between atoms: _684  and  _685
REMARK  261  A    between atoms: _684  and  _687
REMARK  262  A    between atoms: _687  and  _688
REMARK  263  A    between atoms: _688  and  _689
REMARK  264  A    between atoms: _689  and  _690
REMARK  265  A    between atoms: _690  and  _691
REMARK  266  A    between atoms: _695  and  _697
REMARK  267  A    between atoms: _697  and  _698
REMARK  268  A    between atoms: _700  and  _702
REMARK  269  A    between atoms: _702  and  _703
REMARK  270  A    between atoms: _702  and  _705
REMARK  271  A    between atoms: _705  and  _706
REMARK  272  A    between atoms: _711  and  _713
REMARK  273  A    between atoms: _713  and  _714
REMARK  274  A    between atoms: _713  and  _716
REMARK  275  A    between atoms: _716  and  _717
REMARK  276  A    between atoms: _717  and  _718
REMARK  277  A    between atoms: _718  and  _719
REMARK  278  A    between atoms: _728  and  _730
REMARK  279  A    between atoms: _730  and  _731
REMARK  280  A    between atoms: _730  and  _733
REMARK  281  A    between atoms: _733  and  _734
REMARK  282  A    between atoms: _737  and  _739
REMARK  283  A    between atoms: _739  and  _740
REMARK  284  A    between atoms: _739  and  _742
REMARK  285  A    between atoms: _745  and  _747
REMARK  286  A    between atoms: _747  and  _748
REMARK  287  A    between atoms: _747  and  _750
REMARK  288  A    between atoms: _750  and  _751
REMARK  289  A    between atoms: _751  and  _752
REMARK  290  A    between atoms: _758  and  _759
REMARK  291  A    between atoms: _764  and  _766
REMARK  292  A    between atoms: _766  and  _767
REMARK  293  A    between atoms: _766  and  _769
REMARK  294  A    between atoms: _769  and  _770
REMARK  295  A    between atoms: _773  and  _775
REMARK  296  A    between atoms: _775  and  _776
REMARK  297  A    between atoms: _775  and  _778
REMARK  298  A    between atoms: _778  and  _779
REMARK  299  A    between atoms: _782  and  _784
REMARK  300  A    between atoms: _784  and  _785
REMARK  301  A    between atoms: _784  and  _787
REMARK  302  A    between atoms: _787  and  _788
REMARK  303  A    between atoms: _790  and  _792
REMARK  304  A    between atoms: _792  and  _793
REMARK  305  A    between atoms: _792  and  _795
REMARK  306  A    between atoms: _795  and  _796
REMARK  307  A    between atoms: _796  and  _797
REMARK  308  A    between atoms: _797  and  _798
REMARK  309  A    between atoms: _807  and  _809
REMARK  310  A    between atoms: _809  and  _810
REMARK                            x       y       z     vdW  Elec       q    Type
REMARK                         _______ _______ _______ _____ _____    ______ ____
ROOT
ATOM      1  O   HOH     1     -36.623 -36.432 -27.081  0.00  0.00    +0.000 OA
ENDROOT
TORSDOF 0
REMARK  Name = ../refined-set-2016/3rt4/3rt4_pocket.pdb
REMARK  310 active torsions:
REMARK  status: ('A' for Active; 'I' for Inactive)
REMARK    1  A    between atoms: _1  and  _3
REMARK    2  A    between atoms: _3  and  _4
REMARK    3  A    between atoms: _3  and  _6
REMARK    4  A    between atoms: _6  and  _7
REMARK    5  A    between atoms: _7  and  _8
REMARK    6  A    between atoms: _8  and  _9
REMARK    7  A    between atoms: _18  and  _20
REMARK    8  A    between atoms: _20  and  _21
REMARK    9  A    between atoms: _20  and  _23
REMARK   10  A    between atoms: _26  and  _28
REMARK   11  A    between atoms: _28  and  _29
REMARK   12  A    between atoms: _28  and  _31
REMARK   13  A    between atoms: _31  and  _32
REMARK   14  A    between atoms: _32  and  _33
REMARK   15  A    between atoms: _33  and  _34
REMARK   16  A    between atoms: _43  and  _45
REMARK   17  A    between atoms: _45  and  _46
REMARK   18  A    between atoms: _45  and  _48
REMARK   19  A    between atoms: _48  and  _49
REMARK   20  A    between atoms: _51  and  _53
REMARK   21  A    between atoms: _53  and  _54
REMARK   22  A    between atoms: _53  and  _56
REMARK   23  A    between atoms: _56  and  _57
REMARK   24  A    between atoms: _62  and  _64
REMARK   25  A    between atoms: _64  and  _65
REMARK   26  A    between atoms: _64  and  _67
REMARK   27  A    between atoms: _67  and  _68
REMARK   28  A    between atoms: _73  and  _74
REMARK   29  A    between atoms: _76  and  _78
REMARK   30  A    between atoms: _78  and  _79
REMARK   31  A    between atoms: _78  and  _81
REMARK   32  A    between atoms: _81  and  _82
REMARK   33  A    between atoms: _82  and  _83
REMARK   34  A    between atoms: _86  and  _88
REMARK   35  A    between atoms: _88  and  _89
REMARK   36  A    between atoms: _88  and  _91
REMARK   37  A    between atoms: _91  and  _92
REMARK   38  A    between atoms: _92  and  _93
REMARK   39  A    between atoms: _93  and  _94
REMARK   40  A    between atoms: _94  and  _95
REMARK   41  A    between atoms: _99  and  _101
REMARK   42  A    between atoms: _101  and  _102
REMARK   43  A    between atoms: _101  and  _104
REMARK   44  A    between atoms: _104  and  _105
REMARK   45  A    between atoms: _110  and  _111
REMARK   46  A    between atoms: _113  and  _115
REMARK   47  A    between atoms: _115  and  _116
REMARK   48  A    between atoms: _115  and  _118
REMARK   49  A    between atoms: _118  and  _119
REMARK   50  A    between atoms: _119  and  _120
REMARK   51  A    between atoms: _120  and  _121
REMARK   52  A    between atoms: _130  and  _132
REMARK   53  A    between atoms: _132  and  _133
REMARK   54  A    between atoms: _136  and  _138
REMARK   55  A    between atoms: _138  and  _139
REMARK   56  A    between atoms: _138  and  _141
REMARK   57  A    between atoms: _141  and  _142
REMARK   58  A    between atoms: _142  and  _258
REMARK   59  A    between atoms: _143  and  _145
REMARK   60  A    between atoms: _145  and  _146
REMARK   61  A    between atoms: _145  and  _148
REMARK   62  A    between atoms: _148  and  _149
REMARK   63  A    between atoms: _149  and  _150
REMARK   64  A    between atoms: _153  and  _155
REMARK   65  A    between atoms: _155  and  _156
REMARK   66  A    between atoms: _155  and  _158
REMARK   67  A    between atoms: _158  and  _159
REMARK   68  A    between atoms: _161  and  _163
REMARK   69  A    between atoms: _163  and  _164
REMARK   70  A    between atoms: _163  and  _166
REMARK   71  A    between atoms: _166  and  _167
REMARK   72  A    between atoms: _172  and  _173
REMARK   73  A    between atoms: _175  and  _177
REMARK   74  A    between atoms: _177  and  _178
REMARK   75  A    between atoms: _177  and  _180
REMARK   76  A    between atoms: _180  and  _181
REMARK   77  A    between atoms: _186  and  _188
REMARK   78  A    between atoms: _188  and  _189
REMARK   79  A    between atoms: _188  and  _191
REMARK   80  A    between atoms: _194  and  _196
REMARK   81  A    between atoms: _196  and  _197
REMARK   82  A    between atoms: _196  and  _199
REMARK   83  A    between atoms: _199  and  _200
REMARK   84  A    between atoms: _200  and  _201
REMARK   85  A    between atoms: _201  and  _202
REMARK   86  A    between atoms: _211  and  _213
REMARK   87  A    between atoms: _213  and  _214
REMARK   88  A    between atoms: _213  and  _216
REMARK   89  A    between atoms: _216  and  _217
REMARK   90  A    between atoms: _222  and  _224
REMARK   91  A    between atoms: _224  and  _225
REMARK   92  A    between atoms: _224  and  _227
REMARK   93  A    between atoms: _227  and  _228
REMARK   94  A    between atoms: _231  and  _233
REMARK   95  A    between atoms: _233  and  _234
REMARK   96  A    between atoms: _236  and  _238
REMARK   97  A    between atoms: _238  and  _239
REMARK   98  A    between atoms: _238  and  _241
REMARK   99  A    between atoms: _241  and  _242
REMARK  100  A    between atoms: _252  and  _254
REMARK  101  A    between atoms: _254  and  _255
REMARK  102  A    between atoms: _254  and  _257
REMARK  103  A    between atoms: _257  and  _258
REMARK  104  A    between atoms: _259  and  _261
REMARK  105  A    between atoms: _261  and  _262
REMARK  106  A    between atoms: _261  and  _264
REMARK  107  A    between atoms: _264  and  _265
REMARK  108  A    between atoms: _268  and  _270
REMARK  109  A    between atoms: _270  and  _271
REMARK  110  A    between atoms: _273  and  _275
REMARK  111  A    between atoms: _275  and  _276
REMARK  112  A    between atoms: _275  and  _278
REMARK  113  A    between atoms: _278  and  _279
REMARK  114  A    between atoms: _284  and  _285
REMARK  115  A    between atoms: _287  and  _289
REMARK  116  A    between atoms: _289  and  _290
REMARK  117  A    between atoms: _289  and  _292
REMARK  118  A    between atoms: _292  and  _293
REMARK  119  A    between atoms: _293  and  _294
REMARK  120  A    between atoms: _294  and  _295
REMARK  121  A    between atoms: _304  and  _306
REMARK  122  A    between atoms: _306  and  _307
REMARK  123  A    between atoms: _306  and  _309
REMARK  124  A    between atoms: _309  and  _310
REMARK  125  A    between atoms: _310  and  _311
REMARK  126  A    between atoms: _311  and  _312
REMARK  127  A    between atoms: _312  and  _313
REMARK  128  A    between atoms: _317  and  _319
REMARK  129  A    between atoms: _319  and  _320
REMARK  130  A    between atoms: _322  and  _324
REMARK  131  A    between atoms: _324  and  _325
REMARK  132  A    between atoms: _328  and  _330
REMARK  133  A    between atoms: _330  and  _331
REMARK  134  A    between atoms: _330  and  _333
REMARK  135  A    between atoms: _333  and  _334
REMARK  136  A    between atoms: _339  and  _341
REMARK  137  A    between atoms: _341  and  _342
REMARK  138  A    between atoms: _345  and  _347
REMARK  139  A    between atoms: _347  and  _348
REMARK  140  A    between atoms: _351  and  _352
REMARK  141  A    between atoms: _357  and  _359
REMARK  142  A    between atoms: _359  and  _360
REMARK  143  A    between atoms: _359  and  _362
REMARK  144  A    between atoms: _362  and  _363
REMARK  145  A    between atoms: _366  and  _368
REMARK  146  A    between atoms: _368  and  _369
REMARK  147  A    between atoms: _368  and  _371
REMARK  148  A    between atoms: _371  and  _372
REMARK  149  A    between atoms: _382  and  _384
REMARK  150  A    between atoms: _384  and  _385
REMARK  151  A    between atoms: _384  and  _387
REMARK  152  A    between atoms: _387  and  _388
REMARK  153  A    between atoms: _394  and  _395
REMARK  154  A    between atoms: _400  and  _402
REMARK  155  A    between atoms: _402  and  _403
REMARK  156  A    between atoms: _402  and  _405
REMARK  157  A    between atoms: _405  and  _406
REMARK  158  A    between atoms: _409  and  _411
REMARK  159  A    between atoms: _411  and  _412
REMARK  160  A    between atoms: _411  and  _414
REMARK  161  A    between atoms: _414  and  _415
REMARK  162  A    between atoms: _417  and  _419
REMARK  163  A    between atoms: _419  and  _420
REMARK  164  A    between atoms: _419  and  _422
REMARK  165  A    between atoms: _422  and  _423
REMARK  166  A    between atoms: _428  and  _430
REMARK  167  A    between atoms: _430  and  _431
REMARK  168  A    between atoms: _430  and  _433
REMARK  169  A    between atoms: _436  and  _438
REMARK  170  A    between atoms: _438  and  _439
REMARK  171  A    between atoms: _438  and  _441
REMARK  172  A    between atoms: _441  and  _442
REMARK  173  A    between atoms: _442  and  _443
REMARK  174  A    between atoms: _449  and  _450
REMARK  175  A    between atoms: _455  and  _457
REMARK  176  A    between atoms: _457  and  _458
REMARK  177  A    between atoms: _457  and  _460
REMARK  178  A    between atoms: _460  and  _461
REMARK  179  A    between atoms: _464  and  _466
REMARK  180  A    between atoms: _466  and  _467
REMARK  181  A    between atoms: _466  and  _469
REMARK  182  A    between atoms: _469  and  _470
REMARK  183  A    between atoms: _473  and  _475
REMARK  184  A    between atoms: _475  and  _476
REMARK  185  A    between atoms: _475  and  _478
REMARK  186  A    between atoms: _478  and  _479
REMARK  187  A    between atoms: _481  and  _483
REMARK  188  A    between atoms: _483  and  _484
REMARK  189  A    between atoms: _483  and  _486
REMARK  190  A    between atoms: _486  and  _487
REMARK  191  A    between atoms: _492  and  _493
REMARK  192  A    between atoms: _495  and  _497
REMARK  193  A    between atoms: _497  and  _498
REMARK  194  A    between atoms: _497  and  _500
REMARK  195  A    between atoms: _500  and  _501
REMARK  196  A    between atoms: _506  and  _508
REMARK  197  A    between atoms: _508  and  _509
REMARK  198  A    between atoms: _508  and  _511
REMARK  199  A    between atoms: _511  and  _512
REMARK  200  A    between atoms: _515  and  _517
REMARK  201  A    between atoms: _517  and  _518
REMARK  202  A    between atoms: _517  and  _520
REMARK  203  A    between atoms: _520  and  _521
REMARK  204  A    between atoms: _531  and  _533
REMARK  205  A    between atoms: _533  and  _534
REMARK  206  A    between atoms: _536  and  _538
REMARK  207  A    between atoms: _538  and  _539
REMARK  208  A    between atoms: _538  and  _541
REMARK  209  A    between atoms: _541  and  _542
REMARK  210  A    between atoms: _547  and  _548
REMARK  211  A    between atoms: _550  and  _552
REMARK  212  A    between atoms: _552  and  _553
REMARK  213  A    between atoms: _552  and  _555
REMARK  214  A    between atoms: _555  and  _556
REMARK  215  A    between atoms: _556  and  _557
REMARK  216  A    between atoms: _557  and  _558
REMARK  217  A    between atoms: _567  and  _569
REMARK  218  A    between atoms: _569  and  _570
REMARK  219  A    between atoms: _569  and  _572
REMARK  220  A    between atoms: _572  and  _573
REMARK  221  A    between atoms: _573  and  _574
REMARK  222  A    between atoms: _574  and  _575
REMARK  223  A    between atoms: _575  and  _576
REMARK  224  A    between atoms: _580  and  _582
REMARK  225  A    between atoms: _582  and  _583
REMARK  226  A    between atoms: _585  and  _587
REMARK  227  A    between atoms: _587  and  _588
REMARK  228  A    between atoms: _591  and  _593
REMARK  229  A    between atoms: _593  and  _594
REMARK  230  A    between atoms: _593  and  _596
REMARK  231  A    between atoms: _596  and  _597
REMARK  232  A    between atoms: _602  and  _604
REMARK  233  A    between atoms: _604  and  _605
REMARK  234  A    between atoms: _608  and  _610
REMARK  235  A    between atoms: _610  and  _611
REMARK  236  A    between atoms: _614  and  _615
REMARK  237  A    between atoms: _620  and  _622
REMARK  238  A    between atoms: _622  and  _623
REMARK  239  A    between atoms: _622  and  _625
REMARK  240  A    between atoms: _625  and  _626
REMARK  241  A    between atoms: _629  and  _631
REMARK  242  A    between atoms: _631  and  _632
REMARK  243  A    between atoms: _631  and  _634
REMARK  244  A    between atoms: _634  and  _635
REMARK  245  A    between atoms: _645  and  _647
REMARK  246  A    between atoms: _647  and  _648
REMARK  247  A    between atoms: _647  and  _650
REMARK  248  A    between atoms: _650  and  _651
REMARK  249  A    between atoms: _657  and  _658
REMARK  250  A    between atoms: _663  and  _665
REMARK  251  A    between atoms: _665  and  _666
REMARK  252  A    between atoms: _665  and  _668
REMARK  253  A    between atoms: _668  and  _669
REMARK  254  A    between atoms: _672  and  _674
REMARK  255  A    between atoms: _674  and  _675
REMARK  256  A    between atoms: _674  and  _677
REMARK  257  A    between atoms: _677  and  _678
REMARK  258  A    between atoms: _678  and  _679
REMARK  259  A    between atoms: _682  and  _684
REMARK  260  A    between atoms: _684  and  _685
REMARK  261  A    between atoms: _684  and  _687
REMARK  262  A    between atoms: _687  and  _688
REMARK  263  A    between atoms: _688  and  _689
REMARK  264  A    between atoms: _689  and  _690
REMARK  265  A    between atoms: _690  and  _691
REMARK  266  A    between atoms: _695  and  _697
REMARK  267  A    between atoms: _697  and  _698
REMARK  268  A    between atoms: _700  and  _702
REMARK  269  A    between atoms: _702  and  _703
REMARK  270  A    between atoms: _702  and  _705
REMARK  271  A    between atoms: _705  and  _706
REMARK  272  A    between atoms: _711  and  _713
REMARK  273  A    between atoms: _713  and  _714
REMARK  274  A    between atoms: _713  and  _716
REMARK  275  A    between atoms: _716  and  _717
REMARK  276  A    between atoms: _717  and  _718
REMARK  277  A    between atoms: _718  and  _719
REMARK  278  A    between atoms: _728  and  _730
REMARK  279  A    between atoms: _730  and  _731
REMARK  280  A    between atoms: _730  and  _733
REMARK  281  A    between atoms: _733  and  _734
REMARK  282  A    between atoms: _737  and  _739
REMARK  283  A    between atoms: _739  and  _740
REMARK  284  A    between atoms: _739  and  _742
REMARK  285  A    between atoms: _745  and  _747
REMARK  286  A    between atoms: _747  and  _748
REMARK  287  A    between atoms: _747  and  _750
REMARK  288  A    between atoms: _750  and  _751
REMARK  289  A    between atoms: _751  and  _752
REMARK  290  A    between atoms: _758  and  _759
REMARK  291  A    between atoms: _764  and  _766
REMARK  292  A    between atoms: _766  and  _767
REMARK  293  A    between atoms: _766  and  _769
REMARK  294  A    between atoms: _769  and  _770
REMARK  295  A    between atoms: _773  and  _775
REMARK  296  A    between atoms: _775  and  _776
REMARK  297  A    between atoms: _775  and  _778
REMARK  298  A    between atoms: _778  and  _779
REMARK  299  A    between atoms: _782  and  _784
REMARK  300  A    between atoms: _784  and  _785
REMARK  301  A    between atoms: _784  and  _787
REMARK  302  A    between atoms: _787  and  _788
REMARK  303  A    between atoms: _790  and  _792
REMARK  304  A    between atoms: _792  and  _793
REMARK  305  A    between atoms: _792  and  _795
REMARK  306  A    between atoms: _795  and  _796
REMARK  307  A    between atoms: _796  and  _797
REMARK  308  A    between atoms: _797  and  _798
REMARK  309  A    between atoms: _807  and  _809
REMARK  310  A    between atoms: _809  and  _810
REMARK                            x       y       z     vdW  Elec       q    Type
REMARK                         _______ _______ _______ _____ _____    ______ ____
ROOT
ATOM      1  O   HOH     1     -28.586 -27.920 -30.185  0.00  0.00    +0.000 OA
ENDROOT
TORSDOF 0
REMARK  Name = ../refined-set-2016/3rt4/3rt4_pocket.pdb
REMARK  310 active torsions:
REMARK  status: ('A' for Active; 'I' for Inactive)
REMARK    1  A    between atoms: _1  and  _3
REMARK    2  A    between atoms: _3  and  _4
REMARK    3  A    between atoms: _3  and  _6
REMARK    4  A    between atoms: _6  and  _7
REMARK    5  A    between atoms: _7  and  _8
REMARK    6  A    between atoms: _8  and  _9
REMARK    7  A    between atoms: _18  and  _20
REMARK    8  A    between atoms: _20  and  _21
REMARK    9  A    between atoms: _20  and  _23
REMARK   10  A    between atoms: _26  and  _28
REMARK   11  A    between atoms: _28  and  _29
REMARK   12  A    between atoms: _28  and  _31
REMARK   13  A    between atoms: _31  and  _32
REMARK   14  A    between atoms: _32  and  _33
REMARK   15  A    between atoms: _33  and  _34
REMARK   16  A    between atoms: _43  and  _45
REMARK   17  A    between atoms: _45  and  _46
REMARK   18  A    between atoms: _45  and  _48
REMARK   19  A    between atoms: _48  and  _49
REMARK   20  A    between atoms: _51  and  _53
REMARK   21  A    between atoms: _53  and  _54
REMARK   22  A    between atoms: _53  and  _56
REMARK   23  A    between atoms: _56  and  _57
REMARK   24  A    between atoms: _62  and  _64
REMARK   25  A    between atoms: _64  and  _65
REMARK   26  A    between atoms: _64  and  _67
REMARK   27  A    between atoms: _67  and  _68
REMARK   28  A    between atoms: _73  and  _74
REMARK   29  A    between atoms: _76  and  _78
REMARK   30  A    between atoms: _78  and  _79
REMARK   31  A    between atoms: _78  and  _81
REMARK   32  A    between atoms: _81  and  _82
REMARK   33  A    between atoms: _82  and  _83
REMARK   34  A    between atoms: _86  and  _88
REMARK   35  A    between atoms: _88  and  _89
REMARK   36  A    between atoms: _88  and  _91
REMARK   37  A    between atoms: _91  and  _92
REMARK   38  A    between atoms: _92  and  _93
REMARK   39  A    between atoms: _93  and  _94
REMARK   40  A    between atoms: _94  and  _95
REMARK   41  A    between atoms: _99  and  _101
REMARK   42  A    between atoms: _101  and  _102
REMARK   43  A    between atoms: _101  and  _104
REMARK   44  A    between atoms: _104  and  _105
REMARK   45  A    between atoms: _110  and  _111
REMARK   46  A    between atoms: _113  and  _115
REMARK   47  A    between atoms: _115  and  _116
REMARK   48  A    between atoms: _115  and  _118
REMARK   49  A    between atoms: _118  and  _119
REMARK   50  A    between atoms: _119  and  _120
REMARK   51  A    between atoms: _120  and  _121
REMARK   52  A    between atoms: _130  and  _132
REMARK   53  A    between atoms: _132  and  _133
REMARK   54  A    between atoms: _136  and  _138
REMARK   55  A    between atoms: _138  and  _139
REMARK   56  A    between atoms: _138  and  _141
REMARK   57  A    between atoms: _141  and  _142
REMARK   58  A    between atoms: _142  and  _258
REMARK   59  A    between atoms: _143  and  _145
REMARK   60  A    between atoms: _145  and  _146
REMARK   61  A    between atoms: _145  and  _148
REMARK   62  A    between atoms: _148  and  _149
REMARK   63  A    between atoms: _149  and  _150
REMARK   64  A    between atoms: _153  and  _155
REMARK   65  A    between atoms: _155  and  _156
REMARK   66  A    between atoms: _155  and  _158
REMARK   67  A    between atoms: _158  and  _159
REMARK   68  A    between atoms: _161  and  _163
REMARK   69  A    between atoms: _163  and  _164
REMARK   70  A    between atoms: _163  and  _166
REMARK   71  A    between atoms: _166  and  _167
REMARK   72  A    between atoms: _172  and  _173
REMARK   73  A    between atoms: _175  and  _177
REMARK   74  A    between atoms: _177  and  _178
REMARK   75  A    between atoms: _177  and  _180
REMARK   76  A    between atoms: _180  and  _181
REMARK   77  A    between atoms: _186  and  _188
REMARK   78  A    between atoms: _188  and  _189
REMARK   79  A    between atoms: _188  and  _191
REMARK   80  A    between atoms: _194  and  _196
REMARK   81  A    between atoms: _196  and  _197
REMARK   82  A    between atoms: _196  and  _199
REMARK   83  A    between atoms: _199  and  _200
REMARK   84  A    between atoms: _200  and  _201
REMARK   85  A    between atoms: _201  and  _202
REMARK   86  A    between atoms: _211  and  _213
REMARK   87  A    between atoms: _213  and  _214
REMARK   88  A    between atoms: _213  and  _216
REMARK   89  A    between atoms: _216  and  _217
REMARK   90  A    between atoms: _222  and  _224
REMARK   91  A    between atoms: _224  and  _225
REMARK   92  A    between atoms: _224  and  _227
REMARK   93  A    between atoms: _227  and  _228
REMARK   94  A    between atoms: _231  and  _233
REMARK   95  A    between atoms: _233  and  _234
REMARK   96  A    between atoms: _236  and  _238
REMARK   97  A    between atoms: _238  and  _239
REMARK   98  A    between atoms: _238  and  _241
REMARK   99  A    between atoms: _241  and  _242
REMARK  100  A    between atoms: _252  and  _254
REMARK  101  A    between atoms: _254  and  _255
REMARK  102  A    between atoms: _254  and  _257
REMARK  103  A    between atoms: _257  and  _258
REMARK  104  A    between atoms: _259  and  _261
REMARK  105  A    between atoms: _261  and  _262
REMARK  106  A    between atoms: _261  and  _264
REMARK  107  A    between atoms: _264  and  _265
REMARK  108  A    between atoms: _268  and  _270
REMARK  109  A    between atoms: _270  and  _271
REMARK  110  A    between atoms: _273  and  _275
REMARK  111  A    between atoms: _275  and  _276
REMARK  112  A    between atoms: _275  and  _278
REMARK  113  A    between atoms: _278  and  _279
REMARK  114  A    between atoms: _284  and  _285
REMARK  115  A    between atoms: _287  and  _289
REMARK  116  A    between atoms: _289  and  _290
REMARK  117  A    between atoms: _289  and  _292
REMARK  118  A    between atoms: _292  and  _293
REMARK  119  A    between atoms: _293  and  _294
REMARK  120  A    between atoms: _294  and  _295
REMARK  121  A    between atoms: _304  and  _306
REMARK  122  A    between atoms: _306  and  _307
REMARK  123  A    between atoms: _306  and  _309
REMARK  124  A    between atoms: _309  and  _310
REMARK  125  A    between atoms: _310  and  _311
REMARK  126  A    between atoms: _311  and  _312
REMARK  127  A    between atoms: _312  and  _313
REMARK  128  A    between atoms: _317  and  _319
REMARK  129  A    between atoms: _319  and  _320
REMARK  130  A    between atoms: _322  and  _324
REMARK  131  A    between atoms: _324  and  _325
REMARK  132  A    between atoms: _328  and  _330
REMARK  133  A    between atoms: _330  and  _331
REMARK  134  A    between atoms: _330  and  _333
REMARK  135  A    between atoms: _333  and  _334
REMARK  136  A    between atoms: _339  and  _341
REMARK  137  A    between atoms: _341  and  _342
REMARK  138  A    between atoms: _345  and  _347
REMARK  139  A    between atoms: _347  and  _348
REMARK  140  A    between atoms: _351  and  _352
REMARK  141  A    between atoms: _357  and  _359
REMARK  142  A    between atoms: _359  and  _360
REMARK  143  A    between atoms: _359  and  _362
REMARK  144  A    between atoms: _362  and  _363
REMARK  145  A    between atoms: _366  and  _368
REMARK  146  A    between atoms: _368  and  _369
REMARK  147  A    between atoms: _368  and  _371
REMARK  148  A    between atoms: _371  and  _372
REMARK  149  A    between atoms: _382  and  _384
REMARK  150  A    between atoms: _384  and  _385
REMARK  151  A    between atoms: _384  and  _387
REMARK  152  A    between atoms: _387  and  _388
REMARK  153  A    between atoms: _394  and  _395
REMARK  154  A    between atoms: _400  and  _402
REMARK  155  A    between atoms: _402  and  _403
REMARK  156  A    between atoms: _402  and  _405
REMARK  157  A    between atoms: _405  and  _406
REMARK  158  A    between atoms: _409  and  _411
REMARK  159  A    between atoms: _411  and  _412
REMARK  160  A    between atoms: _411  and  _414
REMARK  161  A    between atoms: _414  and  _415
REMARK  162  A    between atoms: _417  and  _419
REMARK  163  A    between atoms: _419  and  _420
REMARK  164  A    between atoms: _419  and  _422
REMARK  165  A    between atoms: _422  and  _423
REMARK  166  A    between atoms: _428  and  _430
REMARK  167  A    between atoms: _430  and  _431
REMARK  168  A    between atoms: _430  and  _433
REMARK  169  A    between atoms: _436  and  _438
REMARK  170  A    between atoms: _438  and  _439
REMARK  171  A    between atoms: _438  and  _441
REMARK  172  A    between atoms: _441  and  _442
REMARK  173  A    between atoms: _442  and  _443
REMARK  174  A    between atoms: _449  and  _450
REMARK  175  A    between atoms: _455  and  _457
REMARK  176  A    between atoms: _457  and  _458
REMARK  177  A    between atoms: _457  and  _460
REMARK  178  A    between atoms: _460  and  _461
REMARK  179  A    between atoms: _464  and  _466
REMARK  180  A    between atoms: _466  and  _467
REMARK  181  A    between atoms: _466  and  _469
REMARK  182  A    between atoms: _469  and  _470
REMARK  183  A    between atoms: _473  and  _475
REMARK  184  A    between atoms: _475  and  _476
REMARK  185  A    between atoms: _475  and  _478
REMARK  186  A    between atoms: _478  and  _479
REMARK  187  A    between atoms: _481  and  _483
REMARK  188  A    between atoms: _483  and  _484
REMARK  189  A    between atoms: _483  and  _486
REMARK  190  A    between atoms: _486  and  _487
REMARK  191  A    between atoms: _492  and  _493
REMARK  192  A    between atoms: _495  and  _497
REMARK  193  A    between atoms: _497  and  _498
REMARK  194  A    between atoms: _497  and  _500
REMARK  195  A    between atoms: _500  and  _501
REMARK  196  A    between atoms: _506  and  _508
REMARK  197  A    between atoms: _508  and  _509
REMARK  198  A    between atoms: _508  and  _511
REMARK  199  A    between atoms: _511  and  _512
REMARK  200  A    between atoms: _515  and  _517
REMARK  201  A    between atoms: _517  and  _518
REMARK  202  A    between atoms: _517  and  _520
REMARK  203  A    between atoms: _520  and  _521
REMARK  204  A    between atoms: _531  and  _533
REMARK  205  A    between atoms: _533  and  _534
REMARK  206  A    between atoms: _536  and  _538
REMARK  207  A    between atoms: _538  and  _539
REMARK  208  A    between atoms: _538  and  _541
REMARK  209  A    between atoms: _541  and  _542
REMARK  210  A    between atoms: _547  and  _548
REMARK  211  A    between atoms: _550  and  _552
REMARK  212  A    between atoms: _552  and  _553
REMARK  213  A    between atoms: _552  and  _555
REMARK  214  A    between atoms: _555  and  _556
REMARK  215  A    between atoms: _556  and  _557
REMARK  216  A    between atoms: _557  and  _558
REMARK  217  A    between atoms: _567  and  _569
REMARK  218  A    between atoms: _569  and  _570
REMARK  219  A    between atoms: _569  and  _572
REMARK  220  A    between atoms: _572  and  _573
REMARK  221  A    between atoms: _573  and  _574
REMARK  222  A    between atoms: _574  and  _575
REMARK  223  A    between atoms: _575  and  _576
REMARK  224  A    between atoms: _580  and  _582
REMARK  225  A    between atoms: _582  and  _583
REMARK  226  A    between atoms: _585  and  _587
REMARK  227  A    between atoms: _587  and  _588
REMARK  228  A    between atoms: _591  and  _593
REMARK  229  A    between atoms: _593  and  _594
REMARK  230  A    between atoms: _593  and  _596
REMARK  231  A    between atoms: _596  and  _597
REMARK  232  A    between atoms: _602  and  _604
REMARK  233  A    between atoms: _604  and  _605
REMARK  234  A    between atoms: _608  and  _610
REMARK  235  A    between atoms: _610  and  _611
REMARK  236  A    between atoms: _614  and  _615
REMARK  237  A    between atoms: _620  and  _622
REMARK  238  A    between atoms: _622  and  _623
REMARK  239  A    between atoms: _622  and  _625
REMARK  240  A    between atoms: _625  and  _626
REMARK  241  A    between atoms: _629  and  _631
REMARK  242  A    between atoms: _631  and  _632
REMARK  243  A    between atoms: _631  and  _634
REMARK  244  A    between atoms: _634  and  _635
REMARK  245  A    between atoms: _645  and  _647
REMARK  246  A    between atoms: _647  and  _648
REMARK  247  A    between atoms: _647  and  _650
REMARK  248  A    between atoms: _650  and  _651
REMARK  249  A    between atoms: _657  and  _658
REMARK  250  A    between atoms: _663  and  _665
REMARK  251  A    between atoms: _665  and  _666
REMARK  252  A    between atoms: _665  and  _668
REMARK  253  A    between atoms: _668  and  _669
REMARK  254  A    between atoms: _672  and  _674
REMARK  255  A    between atoms: _674  and  _675
REMARK  256  A    between atoms: _674  and  _677
REMARK  257  A    between atoms: _677  and  _678
REMARK  258  A    between atoms: _678  and  _679
REMARK  259  A    between atoms: _682  and  _684
REMARK  260  A    between atoms: _684  and  _685
REMARK  261  A    between atoms: _684  and  _687
REMARK  262  A    between atoms: _687  and  _688
REMARK  263  A    between atoms: _688  and  _689
REMARK  264  A    between atoms: _689  and  _690
REMARK  265  A    between atoms: _690  and  _691
REMARK  266  A    between atoms: _695  and  _697
REMARK  267  A    between atoms: _697  and  _698
REMARK  268  A    between atoms: _700  and  _702
REMARK  269  A    between atoms: _702  and  _703
REMARK  270  A    between atoms: _702  and  _705
REMARK  271  A    between atoms: _705  and  _706
REMARK  272  A    between atoms: _711  and  _713
REMARK  273  A    between atoms: _713  and  _714
REMARK  274  A    between atoms: _713  and  _716
REMARK  275  A    between atoms: _716  and  _717
REMARK  276  A    between atoms: _717  and  _718
REMARK  277  A    between atoms: _718  and  _719
REMARK  278  A    between atoms: _728  and  _730
REMARK  279  A    between atoms: _730  and  _731
REMARK  280  A    between atoms: _730  and  _733
REMARK  281  A    between atoms: _733  and  _734
REMARK  282  A    between atoms: _737  and  _739
REMARK  283  A    between atoms: _739  and  _740
REMARK  284  A    between atoms: _739  and  _742
REMARK  285  A    between atoms: _745  and  _747
REMARK  286  A    between atoms: _747  and  _748
REMARK  287  A    between atoms: _747  and  _750
REMARK  288  A    between atoms: _750  and  _751
REMARK  289  A    between atoms: _751  and  _752
REMARK  290  A    between atoms: _758  and  _759
REMARK  291  A    between atoms: _764  and  _766
REMARK  292  A    between atoms: _766  and  _767
REMARK  293  A    between atoms: _766  and  _769
REMARK  294  A    between atoms: _769  and  _770
REMARK  295  A    between atoms: _773  and  _775
REMARK  296  A    between atoms: _775  and  _776
REMARK  297  A    between atoms: _775  and  _778
REMARK  298  A    between atoms: _778  and  _779
REMARK  299  A    between atoms: _782  and  _784
REMARK  300  A    between atoms: _784  and  _785
REMARK  301  A    between atoms: _784  and  _787
REMARK  302  A    between atoms: _787  and  _788
REMARK  303  A    between atoms: _790  and  _792
REMARK  304  A    between atoms: _792  and  _793
REMARK  305  A    between atoms: _792  and  _795
REMARK  306  A    between atoms: _795  and  _796
REMARK  307  A    between atoms: _796  and  _797
REMARK  308  A    between atoms: _797  and  _798
REMARK  309  A    between atoms: _807  and  _809
REMARK  310  A    between atoms: _809  and  _810
REMARK                            x       y       z     vdW  Elec       q    Type
REMARK                         _______ _______ _______ _____ _____    ______ ____
ROOT
ATOM      1  O   HOH     1     -26.941 -34.263 -21.859  0.00  0.00    +0.000 OA
ENDROOT
TORSDOF 0
REMARK  Name = ../refined-set-2016/3rt4/3rt4_pocket.pdb
REMARK  310 active torsions:
REMARK  status: ('A' for Active; 'I' for Inactive)
REMARK    1  A    between atoms: _1  and  _3
REMARK    2  A    between atoms: _3  and  _4
REMARK    3  A    between atoms: _3  and  _6
REMARK    4  A    between atoms: _6  and  _7
REMARK    5  A    between atoms: _7  and  _8
REMARK    6  A    between atoms: _8  and  _9
REMARK    7  A    between atoms: _18  and  _20
REMARK    8  A    between atoms: _20  and  _21
REMARK    9  A    between atoms: _20  and  _23
REMARK   10  A    between atoms: _26  and  _28
REMARK   11  A    between atoms: _28  and  _29
REMARK   12  A    between atoms: _28  and  _31
REMARK   13  A    between atoms: _31  and  _32
REMARK   14  A    between atoms: _32  and  _33
REMARK   15  A    between atoms: _33  and  _34
REMARK   16  A    between atoms: _43  and  _45
REMARK   17  A    between atoms: _45  and  _46
REMARK   18  A    between atoms: _45  and  _48
REMARK   19  A    between atoms: _48  and  _49
REMARK   20  A    between atoms: _51  and  _53
REMARK   21  A    between atoms: _53  and  _54
REMARK   22  A    between atoms: _53  and  _56
REMARK   23  A    between atoms: _56  and  _57
REMARK   24  A    between atoms: _62  and  _64
REMARK   25  A    between atoms: _64  and  _65
REMARK   26  A    between atoms: _64  and  _67
REMARK   27  A    between atoms: _67  and  _68
REMARK   28  A    between atoms: _73  and  _74
REMARK   29  A    between atoms: _76  and  _78
REMARK   30  A    between atoms: _78  and  _79
REMARK   31  A    between atoms: _78  and  _81
REMARK   32  A    between atoms: _81  and  _82
REMARK   33  A    between atoms: _82  and  _83
REMARK   34  A    between atoms: _86  and  _88
REMARK   35  A    between atoms: _88  and  _89
REMARK   36  A    between atoms: _88  and  _91
REMARK   37  A    between atoms: _91  and  _92
REMARK   38  A    between atoms: _92  and  _93
REMARK   39  A    between atoms: _93  and  _94
REMARK   40  A    between atoms: _94  and  _95
REMARK   41  A    between atoms: _99  and  _101
REMARK   42  A    between atoms: _101  and  _102
REMARK   43  A    between atoms: _101  and  _104
REMARK   44  A    between atoms: _104  and  _105
REMARK   45  A    between atoms: _110  and  _111
REMARK   46  A    between atoms: _113  and  _115
REMARK   47  A    between atoms: _115  and  _116
REMARK   48  A    between atoms: _115  and  _118
REMARK   49  A    between atoms: _118  and  _119
REMARK   50  A    between atoms: _119  and  _120
REMARK   51  A    between atoms: _120  and  _121
REMARK   52  A    between atoms: _130  and  _132
REMARK   53  A    between atoms: _132  and  _133
REMARK   54  A    between atoms: _136  and  _138
REMARK   55  A    between atoms: _138  and  _139
REMARK   56  A    between atoms: _138  and  _141
REMARK   57  A    between atoms: _141  and  _142
REMARK   58  A    between atoms: _142  and  _258
REMARK   59  A    between atoms: _143  and  _145
REMARK   60  A    between atoms: _145  and  _146
REMARK   61  A    between atoms: _145  and  _148
REMARK   62  A    between atoms: _148  and  _149
REMARK   63  A    between atoms: _149  and  _150
REMARK   64  A    between atoms: _153  and  _155
REMARK   65  A    between atoms: _155  and  _156
REMARK   66  A    between atoms: _155  and  _158
REMARK   67  A    between atoms: _158  and  _159
REMARK   68  A    between atoms: _161  and  _163
REMARK   69  A    between atoms: _163  and  _164
REMARK   70  A    between atoms: _163  and  _166
REMARK   71  A    between atoms: _166  and  _167
REMARK   72  A    between atoms: _172  and  _173
REMARK   73  A    between atoms: _175  and  _177
REMARK   74  A    between atoms: _177  and  _178
REMARK   75  A    between atoms: _177  and  _180
REMARK   76  A    between atoms: _180  and  _181
REMARK   77  A    between atoms: _186  and  _188
REMARK   78  A    between atoms: _188  and  _189
REMARK   79  A    between atoms: _188  and  _191
REMARK   80  A    between atoms: _194  and  _196
REMARK   81  A    between atoms: _196  and  _197
REMARK   82  A    between atoms: _196  and  _199
REMARK   83  A    between atoms: _199  and  _200
REMARK   84  A    between atoms: _200  and  _201
REMARK   85  A    between atoms: _201  and  _202
REMARK   86  A    between atoms: _211  and  _213
REMARK   87  A    between atoms: _213  and  _214
REMARK   88  A    between atoms: _213  and  _216
REMARK   89  A    between atoms: _216  and  _217
REMARK   90  A    between atoms: _222  and  _224
REMARK   91  A    between atoms: _224  and  _225
REMARK   92  A    between atoms: _224  and  _227
REMARK   93  A    between atoms: _227  and  _228
REMARK   94  A    between atoms: _231  and  _233
REMARK   95  A    between atoms: _233  and  _234
REMARK   96  A    between atoms: _236  and  _238
REMARK   97  A    between atoms: _238  and  _239
REMARK   98  A    between atoms: _238  and  _241
REMARK   99  A    between atoms: _241  and  _242
REMARK  100  A    between atoms: _252  and  _254
REMARK  101  A    between atoms: _254  and  _255
REMARK  102  A    between atoms: _254  and  _257
REMARK  103  A    between atoms: _257  and  _258
REMARK  104  A    between atoms: _259  and  _261
REMARK  105  A    between atoms: _261  and  _262
REMARK  106  A    between atoms: _261  and  _264
REMARK  107  A    between atoms: _264  and  _265
REMARK  108  A    between atoms: _268  and  _270
REMARK  109  A    between atoms: _270  and  _271
REMARK  110  A    between atoms: _273  and  _275
REMARK  111  A    between atoms: _275  and  _276
REMARK  112  A    between atoms: _275  and  _278
REMARK  113  A    between atoms: _278  and  _279
REMARK  114  A    between atoms: _284  and  _285
REMARK  115  A    between atoms: _287  and  _289
REMARK  116  A    between atoms: _289  and  _290
REMARK  117  A    between atoms: _289  and  _292
REMARK  118  A    between atoms: _292  and  _293
REMARK  119  A    between atoms: _293  and  _294
REMARK  120  A    between atoms: _294  and  _295
REMARK  121  A    between atoms: _304  and  _306
REMARK  122  A    between atoms: _306  and  _307
REMARK  123  A    between atoms: _306  and  _309
REMARK  124  A    between atoms: _309  and  _310
REMARK  125  A    between atoms: _310  and  _311
REMARK  126  A    between atoms: _311  and  _312
REMARK  127  A    between atoms: _312  and  _313
REMARK  128  A    between atoms: _317  and  _319
REMARK  129  A    between atoms: _319  and  _320
REMARK  130  A    between atoms: _322  and  _324
REMARK  131  A    between atoms: _324  and  _325
REMARK  132  A    between atoms: _328  and  _330
REMARK  133  A    between atoms: _330  and  _331
REMARK  134  A    between atoms: _330  and  _333
REMARK  135  A    between atoms: _333  and  _334
REMARK  136  A    between atoms: _339  and  _341
REMARK  137  A    between atoms: _341  and  _342
REMARK  138  A    between atoms: _345  and  _347
REMARK  139  A    between atoms: _347  and  _348
REMARK  140  A    between atoms: _351  and  _352
REMARK  141  A    between atoms: _357  and  _359
REMARK  142  A    between atoms: _359  and  _360
REMARK  143  A    between atoms: _359  and  _362
REMARK  144  A    between atoms: _362  and  _363
REMARK  145  A    between atoms: _366  and  _368
REMARK  146  A    between atoms: _368  and  _369
REMARK  147  A    between atoms: _368  and  _371
REMARK  148  A    between atoms: _371  and  _372
REMARK  149  A    between atoms: _382  and  _384
REMARK  150  A    between atoms: _384  and  _385
REMARK  151  A    between atoms: _384  and  _387
REMARK  152  A    between atoms: _387  and  _388
REMARK  153  A    between atoms: _394  and  _395
REMARK  154  A    between atoms: _400  and  _402
REMARK  155  A    between atoms: _402  and  _403
REMARK  156  A    between atoms: _402  and  _405
REMARK  157  A    between atoms: _405  and  _406
REMARK  158  A    between atoms: _409  and  _411
REMARK  159  A    between atoms: _411  and  _412
REMARK  160  A    between atoms: _411  and  _414
REMARK  161  A    between atoms: _414  and  _415
REMARK  162  A    between atoms: _417  and  _419
REMARK  163  A    between atoms: _419  and  _420
REMARK  164  A    between atoms: _419  and  _422
REMARK  165  A    between atoms: _422  and  _423
REMARK  166  A    between atoms: _428  and  _430
REMARK  167  A    between atoms: _430  and  _431
REMARK  168  A    between atoms: _430  and  _433
REMARK  169  A    between atoms: _436  and  _438
REMARK  170  A    between atoms: _438  and  _439
REMARK  171  A    between atoms: _438  and  _441
REMARK  172  A    between atoms: _441  and  _442
REMARK  173  A    between atoms: _442  and  _443
REMARK  174  A    between atoms: _449  and  _450
REMARK  175  A    between atoms: _455  and  _457
REMARK  176  A    between atoms: _457  and  _458
REMARK  177  A    between atoms: _457  and  _460
REMARK  178  A    between atoms: _460  and  _461
REMARK  179  A    between atoms: _464  and  _466
REMARK  180  A    between atoms: _466  and  _467
REMARK  181  A    between atoms: _466  and  _469
REMARK  182  A    between atoms: _469  and  _470
REMARK  183  A    between atoms: _473  and  _475
REMARK  184  A    between atoms: _475  and  _476
REMARK  185  A    between atoms: _475  and  _478
REMARK  186  A    between atoms: _478  and  _479
REMARK  187  A    between atoms: _481  and  _483
REMARK  188  A    between atoms: _483  and  _484
REMARK  189  A    between atoms: _483  and  _486
REMARK  190  A    between atoms: _486  and  _487
REMARK  191  A    between atoms: _492  and  _493
REMARK  192  A    between atoms: _495  and  _497
REMARK  193  A    between atoms: _497  and  _498
REMARK  194  A    between atoms: _497  and  _500
REMARK  195  A    between atoms: _500  and  _501
REMARK  196  A    between atoms: _506  and  _508
REMARK  197  A    between atoms: _508  and  _509
REMARK  198  A    between atoms: _508  and  _511
REMARK  199  A    between atoms: _511  and  _512
REMARK  200  A    between atoms: _515  and  _517
REMARK  201  A    between atoms: _517  and  _518
REMARK  202  A    between atoms: _517  and  _520
REMARK  203  A    between atoms: _520  and  _521
REMARK  204  A    between atoms: _531  and  _533
REMARK  205  A    between atoms: _533  and  _534
REMARK  206  A    between atoms: _536  and  _538
REMARK  207  A    between atoms: _538  and  _539
REMARK  208  A    between atoms: _538  and  _541
REMARK  209  A    between atoms: _541  and  _542
REMARK  210  A    between atoms: _547  and  _548
REMARK  211  A    between atoms: _550  and  _552
REMARK  212  A    between atoms: _552  and  _553
REMARK  213  A    between atoms: _552  and  _555
REMARK  214  A    between atoms: _555  and  _556
REMARK  215  A    between atoms: _556  and  _557
REMARK  216  A    between atoms: _557  and  _558
REMARK  217  A    between atoms: _567  and  _569
REMARK  218  A    between atoms: _569  and  _570
REMARK  219  A    between atoms: _569  and  _572
REMARK  220  A    between atoms: _572  and  _573
REMARK  221  A    between atoms: _573  and  _574
REMARK  222  A    between atoms: _574  and  _575
REMARK  223  A    between atoms: _575  and  _576
REMARK  224  A    between atoms: _580  and  _582
REMARK  225  A    between atoms: _582  and  _583
REMARK  226  A    between atoms: _585  and  _587
REMARK  227  A    between atoms: _587  and  _588
REMARK  228  A    between atoms: _591  and  _593
REMARK  229  A    between atoms: _593  and  _594
REMARK  230  A    between atoms: _593  and  _596
REMARK  231  A    between atoms: _596  and  _597
REMARK  232  A    between atoms: _602  and  _604
REMARK  233  A    between atoms: _604  and  _605
REMARK  234  A    between atoms: _608  and  _610
REMARK  235  A    between atoms: _610  and  _611
REMARK  236  A    between atoms: _614  and  _615
REMARK  237  A    between atoms: _620  and  _622
REMARK  238  A    between atoms: _622  and  _623
REMARK  239  A    between atoms: _622  and  _625
REMARK  240  A    between atoms: _625  and  _626
REMARK  241  A    between atoms: _629  and  _631
REMARK  242  A    between atoms: _631  and  _632
REMARK  243  A    between atoms: _631  and  _634
REMARK  244  A    between atoms: _634  and  _635
REMARK  245  A    between atoms: _645  and  _647
REMARK  246  A    between atoms: _647  and  _648
REMARK  247  A    between atoms: _647  and  _650
REMARK  248  A    between atoms: _650  and  _651
REMARK  249  A    between atoms: _657  and  _658
REMARK  250  A    between atoms: _663  and  _665
REMARK  251  A    between atoms: _665  and  _666
REMARK  252  A    between atoms: _665  and  _668
REMARK  253  A    between atoms: _668  and  _669
REMARK  254  A    between atoms: _672  and  _674
REMARK  255  A    between atoms: _674  and  _675
REMARK  256  A    between atoms: _674  and  _677
REMARK  257  A    between atoms: _677  and  _678
REMARK  258  A    between atoms: _678  and  _679
REMARK  259  A    between atoms: _682  and  _684
REMARK  260  A    between atoms: _684  and  _685
REMARK  261  A    between atoms: _684  and  _687
REMARK  262  A    between atoms: _687  and  _688
REMARK  263  A    between atoms: _688  and  _689
REMARK  264  A    between atoms: _689  and  _690
REMARK  265  A    between atoms: _690  and  _691
REMARK  266  A    between atoms: _695  and  _697
REMARK  267  A    between atoms: _697  and  _698
REMARK  268  A    between atoms: _700  and  _702
REMARK  269  A    between atoms: _702  and  _703
REMARK  270  A    between atoms: _702  and  _705
REMARK  271  A    between atoms: _705  and  _706
REMARK  272  A    between atoms: _711  and  _713
REMARK  273  A    between atoms: _713  and  _714
REMARK  274  A    between atoms: _713  and  _716
REMARK  275  A    between atoms: _716  and  _717
REMARK  276  A    between atoms: _717  and  _718
REMARK  277  A    between atoms: _718  and  _719
REMARK  278  A    between atoms: _728  and  _730
REMARK  279  A    between atoms: _730  and  _731
REMARK  280  A    between atoms: _730  and  _733
REMARK  281  A    between atoms: _733  and  _734
REMARK  282  A    between atoms: _737  and  _739
REMARK  283  A    between atoms: _739  and  _740
REMARK  284  A    between atoms: _739  and  _742
REMARK  285  A    between atoms: _745  and  _747
REMARK  286  A    between atoms: _747  and  _748
REMARK  287  A    between atoms: _747  and  _750
REMARK  288  A    between atoms: _750  and  _751
REMARK  289  A    between atoms: _751  and  _752
REMARK  290  A    between atoms: _758  and  _759
REMARK  291  A    between atoms: _764  and  _766
REMARK  292  A    between atoms: _766  and  _767
REMARK  293  A    between atoms: _766  and  _769
REMARK  294  A    between atoms: _769  and  _770
REMARK  295  A    between atoms: _773  and  _775
REMARK  296  A    between atoms: _775  and  _776
REMARK  297  A    between atoms: _775  and  _778
REMARK  298  A    between atoms: _778  and  _779
REMARK  299  A    between atoms: _782  and  _784
REMARK  300  A    between atoms: _784  and  _785
REMARK  301  A    between atoms: _784  and  _787
REMARK  302  A    between atoms: _787  and  _788
REMARK  303  A    between atoms: _790  and  _792
REMARK  304  A    between atoms: _792  and  _793
REMARK  305  A    between atoms: _792  and  _795
REMARK  306  A    between atoms: _795  and  _796
REMARK  307  A    between atoms: _796  and  _797
REMARK  308  A    between atoms: _797  and  _798
REMARK  309  A    between atoms: _807  and  _809
REMARK  310  A    between atoms: _809  and  _810
REMARK                            x       y       z     vdW  Elec       q    Type
REMARK                         _______ _______ _______ _____ _____    ______ ____
ROOT
ATOM      1  O   HOH     1     -24.864 -31.229 -10.190  0.00  0.00    +0.000 OA
ENDROOT
TORSDOF 0
REMARK  Name = ../refined-set-2016/3rt4/3rt4_pocket.pdb
REMARK  310 active torsions:
REMARK  status: ('A' for Active; 'I' for Inactive)
REMARK    1  A    between atoms: _1  and  _3
REMARK    2  A    between atoms: _3  and  _4
REMARK    3  A    between atoms: _3  and  _6
REMARK    4  A    between atoms: _6  and  _7
REMARK    5  A    between atoms: _7  and  _8
REMARK    6  A    between atoms: _8  and  _9
REMARK    7  A    between atoms: _18  and  _20
REMARK    8  A    between atoms: _20  and  _21
REMARK    9  A    between atoms: _20  and  _23
REMARK   10  A    between atoms: _26  and  _28
REMARK   11  A    between atoms: _28  and  _29
REMARK   12  A    between atoms: _28  and  _31
REMARK   13  A    between atoms: _31  and  _32
REMARK   14  A    between atoms: _32  and  _33
REMARK   15  A    between atoms: _33  and  _34
REMARK   16  A    between atoms: _43  and  _45
REMARK   17  A    between atoms: _45  and  _46
REMARK   18  A    between atoms: _45  and  _48
REMARK   19  A    between atoms: _48  and  _49
REMARK   20  A    between atoms: _51  and  _53
REMARK   21  A    between atoms: _53  and  _54
REMARK   22  A    between atoms: _53  and  _56
REMARK   23  A    between atoms: _56  and  _57
REMARK   24  A    between atoms: _62  and  _64
REMARK   25  A    between atoms: _64  and  _65
REMARK   26  A    between atoms: _64  and  _67
REMARK   27  A    between atoms: _67  and  _68
REMARK   28  A    between atoms: _73  and  _74
REMARK   29  A    between atoms: _76  and  _78
REMARK   30  A    between atoms: _78  and  _79
REMARK   31  A    between atoms: _78  and  _81
REMARK   32  A    between atoms: _81  and  _82
REMARK   33  A    between atoms: _82  and  _83
REMARK   34  A    between atoms: _86  and  _88
REMARK   35  A    between atoms: _88  and  _89
REMARK   36  A    between atoms: _88  and  _91
REMARK   37  A    between atoms: _91  and  _92
REMARK   38  A    between atoms: _92  and  _93
REMARK   39  A    between atoms: _93  and  _94
REMARK   40  A    between atoms: _94  and  _95
REMARK   41  A    between atoms: _99  and  _101
REMARK   42  A    between atoms: _101  and  _102
REMARK   43  A    between atoms: _101  and  _104
REMARK   44  A    between atoms: _104  and  _105
REMARK   45  A    between atoms: _110  and  _111
REMARK   46  A    between atoms: _113  and  _115
REMARK   47  A    between atoms: _115  and  _116
REMARK   48  A    between atoms: _115  and  _118
REMARK   49  A    between atoms: _118  and  _119
REMARK   50  A    between atoms: _119  and  _120
REMARK   51  A    between atoms: _120  and  _121
REMARK   52  A    between atoms: _130  and  _132
REMARK   53  A    between atoms: _132  and  _133
REMARK   54  A    between atoms: _136  and  _138
REMARK   55  A    between atoms: _138  and  _139
REMARK   56  A    between atoms: _138  and  _141
REMARK   57  A    between atoms: _141  and  _142
REMARK   58  A    between atoms: _142  and  _258
REMARK   59  A    between atoms: _143  and  _145
REMARK   60  A    between atoms: _145  and  _146
REMARK   61  A    between atoms: _145  and  _148
REMARK   62  A    between atoms: _148  and  _149
REMARK   63  A    between atoms: _149  and  _150
REMARK   64  A    between atoms: _153  and  _155
REMARK   65  A    between atoms: _155  and  _156
REMARK   66  A    between atoms: _155  and  _158
REMARK   67  A    between atoms: _158  and  _159
REMARK   68  A    between atoms: _161  and  _163
REMARK   69  A    between atoms: _163  and  _164
REMARK   70  A    between atoms: _163  and  _166
REMARK   71  A    between atoms: _166  and  _167
REMARK   72  A    between atoms: _172  and  _173
REMARK   73  A    between atoms: _175  and  _177
REMARK   74  A    between atoms: _177  and  _178
REMARK   75  A    between atoms: _177  and  _180
REMARK   76  A    between atoms: _180  and  _181
REMARK   77  A    between atoms: _186  and  _188
REMARK   78  A    between atoms: _188  and  _189
REMARK   79  A    between atoms: _188  and  _191
REMARK   80  A    between atoms: _194  and  _196
REMARK   81  A    between atoms: _196  and  _197
REMARK   82  A    between atoms: _196  and  _199
REMARK   83  A    between atoms: _199  and  _200
REMARK   84  A    between atoms: _200  and  _201
REMARK   85  A    between atoms: _201  and  _202
REMARK   86  A    between atoms: _211  and  _213
REMARK   87  A    between atoms: _213  and  _214
REMARK   88  A    between atoms: _213  and  _216
REMARK   89  A    between atoms: _216  and  _217
REMARK   90  A    between atoms: _222  and  _224
REMARK   91  A    between atoms: _224  and  _225
REMARK   92  A    between atoms: _224  and  _227
REMARK   93  A    between atoms: _227  and  _228
REMARK   94  A    between atoms: _231  and  _233
REMARK   95  A    between atoms: _233  and  _234
REMARK   96  A    between atoms: _236  and  _238
REMARK   97  A    between atoms: _238  and  _239
REMARK   98  A    between atoms: _238  and  _241
REMARK   99  A    between atoms: _241  and  _242
REMARK  100  A    between atoms: _252  and  _254
REMARK  101  A    between atoms: _254  and  _255
REMARK  102  A    between atoms: _254  and  _257
REMARK  103  A    between atoms: _257  and  _258
REMARK  104  A    between atoms: _259  and  _261
REMARK  105  A    between atoms: _261  and  _262
REMARK  106  A    between atoms: _261  and  _264
REMARK  107  A    between atoms: _264  and  _265
REMARK  108  A    between atoms: _268  and  _270
REMARK  109  A    between atoms: _270  and  _271
REMARK  110  A    between atoms: _273  and  _275
REMARK  111  A    between atoms: _275  and  _276
REMARK  112  A    between atoms: _275  and  _278
REMARK  113  A    between atoms: _278  and  _279
REMARK  114  A    between atoms: _284  and  _285
REMARK  115  A    between atoms: _287  and  _289
REMARK  116  A    between atoms: _289  and  _290
REMARK  117  A    between atoms: _289  and  _292
REMARK  118  A    between atoms: _292  and  _293
REMARK  119  A    between atoms: _293  and  _294
REMARK  120  A    between atoms: _294  and  _295
REMARK  121  A    between atoms: _304  and  _306
REMARK  122  A    between atoms: _306  and  _307
REMARK  123  A    between atoms: _306  and  _309
REMARK  124  A    between atoms: _309  and  _310
REMARK  125  A    between atoms: _310  and  _311
REMARK  126  A    between atoms: _311  and  _312
REMARK  127  A    between atoms: _312  and  _313
REMARK  128  A    between atoms: _317  and  _319
REMARK  129  A    between atoms: _319  and  _320
REMARK  130  A    between atoms: _322  and  _324
REMARK  131  A    between atoms: _324  and  _325
REMARK  132  A    between atoms: _328  and  _330
REMARK  133  A    between atoms: _330  and  _331
REMARK  134  A    between atoms: _330  and  _333
REMARK  135  A    between atoms: _333  and  _334
REMARK  136  A    between atoms: _339  and  _341
REMARK  137  A    between atoms: _341  and  _342
REMARK  138  A    between atoms: _345  and  _347
REMARK  139  A    between atoms: _347  and  _348
REMARK  140  A    between atoms: _351  and  _352
REMARK  141  A    between atoms: _357  and  _359
REMARK  142  A    between atoms: _359  and  _360
REMARK  143  A    between atoms: _359  and  _362
REMARK  144  A    between atoms: _362  and  _363
REMARK  145  A    between atoms: _366  and  _368
REMARK  146  A    between atoms: _368  and  _369
REMARK  147  A    between atoms: _368  and  _371
REMARK  148  A    between atoms: _371  and  _372
REMARK  149  A    between atoms: _382  and  _384
REMARK  150  A    between atoms: _384  and  _385
REMARK  151  A    between atoms: _384  and  _387
REMARK  152  A    between atoms: _387  and  _388
REMARK  153  A    between atoms: _394  and  _395
REMARK  154  A    between atoms: _400  and  _402
REMARK  155  A    between atoms: _402  and  _403
REMARK  156  A    between atoms: _402  and  _405
REMARK  157  A    between atoms: _405  and  _406
REMARK  158  A    between atoms: _409  and  _411
REMARK  159  A    between atoms: _411  and  _412
REMARK  160  A    between atoms: _411  and  _414
REMARK  161  A    between atoms: _414  and  _415
REMARK  162  A    between atoms: _417  and  _419
REMARK  163  A    between atoms: _419  and  _420
REMARK  164  A    between atoms: _419  and  _422
REMARK  165  A    between atoms: _422  and  _423
REMARK  166  A    between atoms: _428  and  _430
REMARK  167  A    between atoms: _430  and  _431
REMARK  168  A    between atoms: _430  and  _433
REMARK  169  A    between atoms: _436  and  _438
REMARK  170  A    between atoms: _438  and  _439
REMARK  171  A    between atoms: _438  and  _441
REMARK  172  A    between atoms: _441  and  _442
REMARK  173  A    between atoms: _442  and  _443
REMARK  174  A    between atoms: _449  and  _450
REMARK  175  A    between atoms: _455  and  _457
REMARK  176  A    between atoms: _457  and  _458
REMARK  177  A    between atoms: _457  and  _460
REMARK  178  A    between atoms: _460  and  _461
REMARK  179  A    between atoms: _464  and  _466
REMARK  180  A    between atoms: _466  and  _467
REMARK  181  A    between atoms: _466  and  _469
REMARK  182  A    between atoms: _469  and  _470
REMARK  183  A    between atoms: _473  and  _475
REMARK  184  A    between atoms: _475  and  _476
REMARK  185  A    between atoms: _475  and  _478
REMARK  186  A    between atoms: _478  and  _479
REMARK  187  A    between atoms: _481  and  _483
REMARK  188  A    between atoms: _483  and  _484
REMARK  189  A    between atoms: _483  and  _486
REMARK  190  A    between atoms: _486  and  _487
REMARK  191  A    between atoms: _492  and  _493
REMARK  192  A    between atoms: _495  and  _497
REMARK  193  A    between atoms: _497  and  _498
REMARK  194  A    between atoms: _497  and  _500
REMARK  195  A    between atoms: _500  and  _501
REMARK  196  A    between atoms: _506  and  _508
REMARK  197  A    between atoms: _508  and  _509
REMARK  198  A    between atoms: _508  and  _511
REMARK  199  A    between atoms: _511  and  _512
REMARK  200  A    between atoms: _515  and  _517
REMARK  201  A    between atoms: _517  and  _518
REMARK  202  A    between atoms: _517  and  _520
REMARK  203  A    between atoms: _520  and  _521
REMARK  204  A    between atoms: _531  and  _533
REMARK  205  A    between atoms: _533  and  _534
REMARK  206  A    between atoms: _536  and  _538
REMARK  207  A    between atoms: _538  and  _539
REMARK  208  A    between atoms: _538  and  _541
REMARK  209  A    between atoms: _541  and  _542
REMARK  210  A    between atoms: _547  and  _548
REMARK  211  A    between atoms: _550  and  _552
REMARK  212  A    between atoms: _552  and  _553
REMARK  213  A    between atoms: _552  and  _555
REMARK  214  A    between atoms: _555  and  _556
REMARK  215  A    between atoms: _556  and  _557
REMARK  216  A    between atoms: _557  and  _558
REMARK  217  A    between atoms: _567  and  _569
REMARK  218  A    between atoms: _569  and  _570
REMARK  219  A    between atoms: _569  and  _572
REMARK  220  A    between atoms: _572  and  _573
REMARK  221  A    between atoms: _573  and  _574
REMARK  222  A    between atoms: _574  and  _575
REMARK  223  A    between atoms: _575  and  _576
REMARK  224  A    between atoms: _580  and  _582
REMARK  225  A    between atoms: _582  and  _583
REMARK  226  A    between atoms: _585  and  _587
REMARK  227  A    between atoms: _587  and  _588
REMARK  228  A    between atoms: _591  and  _593
REMARK  229  A    between atoms: _593  and  _594
REMARK  230  A    between atoms: _593  and  _596
REMARK  231  A    between atoms: _596  and  _597
REMARK  232  A    between atoms: _602  and  _604
REMARK  233  A    between atoms: _604  and  _605
REMARK  234  A    between atoms: _608  and  _610
REMARK  235  A    between atoms: _610  and  _611
REMARK  236  A    between atoms: _614  and  _615
REMARK  237  A    between atoms: _620  and  _622
REMARK  238  A    between atoms: _622  and  _623
REMARK  239  A    between atoms: _622  and  _625
REMARK  240  A    between atoms: _625  and  _626
REMARK  241  A    between atoms: _629  and  _631
REMARK  242  A    between atoms: _631  and  _632
REMARK  243  A    between atoms: _631  and  _634
REMARK  244  A    between atoms: _634  and  _635
REMARK  245  A    between atoms: _645  and  _647
REMARK  246  A    between atoms: _647  and  _648
REMARK  247  A    between atoms: _647  and  _650
REMARK  248  A    between atoms: _650  and  _651
REMARK  249  A    between atoms: _657  and  _658
REMARK  250  A    between atoms: _663  and  _665
REMARK  251  A    between atoms: _665  and  _666
REMARK  252  A    between atoms: _665  and  _668
REMARK  253  A    between atoms: _668  and  _669
REMARK  254  A    between atoms: _672  and  _674
REMARK  255  A    between atoms: _674  and  _675
REMARK  256  A    between atoms: _674  and  _677
REMARK  257  A    between atoms: _677  and  _678
REMARK  258  A    between atoms: _678  and  _679
REMARK  259  A    between atoms: _682  and  _684
REMARK  260  A    between atoms: _684  and  _685
REMARK  261  A    between atoms: _684  and  _687
REMARK  262  A    between atoms: _687  and  _688
REMARK  263  A    between atoms: _688  and  _689
REMARK  264  A    between atoms: _689  and  _690
REMARK  265  A    between atoms: _690  and  _691
REMARK  266  A    between atoms: _695  and  _697
REMARK  267  A    between atoms: _697  and  _698
REMARK  268  A    between atoms: _700  and  _702
REMARK  269  A    between atoms: _702  and  _703
REMARK  270  A    between atoms: _702  and  _705
REMARK  271  A    between atoms: _705  and  _706
REMARK  272  A    between atoms: _711  and  _713
REMARK  273  A    between atoms: _713  and  _714
REMARK  274  A    between atoms: _713  and  _716
REMARK  275  A    between atoms: _716  and  _717
REMARK  276  A    between atoms: _717  and  _718
REMARK  277  A    between atoms: _718  and  _719
REMARK  278  A    between atoms: _728  and  _730
REMARK  279  A    between atoms: _730  and  _731
REMARK  280  A    between atoms: _730  and  _733
REMARK  281  A    between atoms: _733  and  _734
REMARK  282  A    between atoms: _737  and  _739
REMARK  283  A    between atoms: _739  and  _740
REMARK  284  A    between atoms: _739  and  _742
REMARK  285  A    between atoms: _745  and  _747
REMARK  286  A    between atoms: _747  and  _748
REMARK  287  A    between atoms: _747  and  _750
REMARK  288  A    between atoms: _750  and  _751
REMARK  289  A    between atoms: _751  and  _752
REMARK  290  A    between atoms: _758  and  _759
REMARK  291  A    between atoms: _764  and  _766
REMARK  292  A    between atoms: _766  and  _767
REMARK  293  A    between atoms: _766  and  _769
REMARK  294  A    between atoms: _769  and  _770
REMARK  295  A    between atoms: _773  and  _775
REMARK  296  A    between atoms: _775  and  _776
REMARK  297  A    between atoms: _775  and  _778
REMARK  298  A    between atoms: _778  and  _779
REMARK  299  A    between atoms: _782  and  _784
REMARK  300  A    between atoms: _784  and  _785
REMARK  301  A    between atoms: _784  and  _787
REMARK  302  A    between atoms: _787  and  _788
REMARK  303  A    between atoms: _790  and  _792
REMARK  304  A    between atoms: _792  and  _793
REMARK  305  A    between atoms: _792  and  _795
REMARK  306  A    between atoms: _795  and  _796
REMARK  307  A    between atoms: _796  and  _797
REMARK  308  A    between atoms: _797  and  _798
REMARK  309  A    between atoms: _807  and  _809
REMARK  310  A    between atoms: _809  and  _810
REMARK                            x       y       z     vdW  Elec       q    Type
REMARK                         _______ _______ _______ _____ _____    ______ ____
ROOT
ATOM      1  O   HOH     1     -24.138 -34.494 -22.000  0.00  0.00    +0.000 OA
ENDROOT
TORSDOF 0
REMARK  Name = ../refined-set-2016/3rt4/3rt4_pocket.pdb
REMARK  310 active torsions:
REMARK  status: ('A' for Active; 'I' for Inactive)
REMARK    1  A    between atoms: _1  and  _3
REMARK    2  A    between atoms: _3  and  _4
REMARK    3  A    between atoms: _3  and  _6
REMARK    4  A    between atoms: _6  and  _7
REMARK    5  A    between atoms: _7  and  _8
REMARK    6  A    between atoms: _8  and  _9
REMARK    7  A    between atoms: _18  and  _20
REMARK    8  A    between atoms: _20  and  _21
REMARK    9  A    between atoms: _20  and  _23
REMARK   10  A    between atoms: _26  and  _28
REMARK   11  A    between atoms: _28  and  _29
REMARK   12  A    between atoms: _28  and  _31
REMARK   13  A    between atoms: _31  and  _32
REMARK   14  A    between atoms: _32  and  _33
REMARK   15  A    between atoms: _33  and  _34
REMARK   16  A    between atoms: _43  and  _45
REMARK   17  A    between atoms: _45  and  _46
REMARK   18  A    between atoms: _45  and  _48
REMARK   19  A    between atoms: _48  and  _49
REMARK   20  A    between atoms: _51  and  _53
REMARK   21  A    between atoms: _53  and  _54
REMARK   22  A    between atoms: _53  and  _56
REMARK   23  A    between atoms: _56  and  _57
REMARK   24  A    between atoms: _62  and  _64
REMARK   25  A    between atoms: _64  and  _65
REMARK   26  A    between atoms: _64  and  _67
REMARK   27  A    between atoms: _67  and  _68
REMARK   28  A    between atoms: _73  and  _74
REMARK   29  A    between atoms: _76  and  _78
REMARK   30  A    between atoms: _78  and  _79
REMARK   31  A    between atoms: _78  and  _81
REMARK   32  A    between atoms: _81  and  _82
REMARK   33  A    between atoms: _82  and  _83
REMARK   34  A    between atoms: _86  and  _88
REMARK   35  A    between atoms: _88  and  _89
REMARK   36  A    between atoms: _88  and  _91
REMARK   37  A    between atoms: _91  and  _92
REMARK   38  A    between atoms: _92  and  _93
REMARK   39  A    between atoms: _93  and  _94
REMARK   40  A    between atoms: _94  and  _95
REMARK   41  A    between atoms: _99  and  _101
REMARK   42  A    between atoms: _101  and  _102
REMARK   43  A    between atoms: _101  and  _104
REMARK   44  A    between atoms: _104  and  _105
REMARK   45  A    between atoms: _110  and  _111
REMARK   46  A    between atoms: _113  and  _115
REMARK   47  A    between atoms: _115  and  _116
REMARK   48  A    between atoms: _115  and  _118
REMARK   49  A    between atoms: _118  and  _119
REMARK   50  A    between atoms: _119  and  _120
REMARK   51  A    between atoms: _120  and  _121
REMARK   52  A    between atoms: _130  and  _132
REMARK   53  A    between atoms: _132  and  _133
REMARK   54  A    between atoms: _136  and  _138
REMARK   55  A    between atoms: _138  and  _139
REMARK   56  A    between atoms: _138  and  _141
REMARK   57  A    between atoms: _141  and  _142
REMARK   58  A    between atoms: _142  and  _258
REMARK   59  A    between atoms: _143  and  _145
REMARK   60  A    between atoms: _145  and  _146
REMARK   61  A    between atoms: _145  and  _148
REMARK   62  A    between atoms: _148  and  _149
REMARK   63  A    between atoms: _149  and  _150
REMARK   64  A    between atoms: _153  and  _155
REMARK   65  A    between atoms: _155  and  _156
REMARK   66  A    between atoms: _155  and  _158
REMARK   67  A    between atoms: _158  and  _159
REMARK   68  A    between atoms: _161  and  _163
REMARK   69  A    between atoms: _163  and  _164
REMARK   70  A    between atoms: _163  and  _166
REMARK   71  A    between atoms: _166  and  _167
REMARK   72  A    between atoms: _172  and  _173
REMARK   73  A    between atoms: _175  and  _177
REMARK   74  A    between atoms: _177  and  _178
REMARK   75  A    between atoms: _177  and  _180
REMARK   76  A    between atoms: _180  and  _181
REMARK   77  A    between atoms: _186  and  _188
REMARK   78  A    between atoms: _188  and  _189
REMARK   79  A    between atoms: _188  and  _191
REMARK   80  A    between atoms: _194  and  _196
REMARK   81  A    between atoms: _196  and  _197
REMARK   82  A    between atoms: _196  and  _199
REMARK   83  A    between atoms: _199  and  _200
REMARK   84  A    between atoms: _200  and  _201
REMARK   85  A    between atoms: _201  and  _202
REMARK   86  A    between atoms: _211  and  _213
REMARK   87  A    between atoms: _213  and  _214
REMARK   88  A    between atoms: _213  and  _216
REMARK   89  A    between atoms: _216  and  _217
REMARK   90  A    between atoms: _222  and  _224
REMARK   91  A    between atoms: _224  and  _225
REMARK   92  A    between atoms: _224  and  _227
REMARK   93  A    between atoms: _227  and  _228
REMARK   94  A    between atoms: _231  and  _233
REMARK   95  A    between atoms: _233  and  _234
REMARK   96  A    between atoms: _236  and  _238
REMARK   97  A    between atoms: _238  and  _239
REMARK   98  A    between atoms: _238  and  _241
REMARK   99  A    between atoms: _241  and  _242
REMARK  100  A    between atoms: _252  and  _254
REMARK  101  A    between atoms: _254  and  _255
REMARK  102  A    between atoms: _254  and  _257
REMARK  103  A    between atoms: _257  and  _258
REMARK  104  A    between atoms: _259  and  _261
REMARK  105  A    between atoms: _261  and  _262
REMARK  106  A    between atoms: _261  and  _264
REMARK  107  A    between atoms: _264  and  _265
REMARK  108  A    between atoms: _268  and  _270
REMARK  109  A    between atoms: _270  and  _271
REMARK  110  A    between atoms: _273  and  _275
REMARK  111  A    between atoms: _275  and  _276
REMARK  112  A    between atoms: _275  and  _278
REMARK  113  A    between atoms: _278  and  _279
REMARK  114  A    between atoms: _284  and  _285
REMARK  115  A    between atoms: _287  and  _289
REMARK  116  A    between atoms: _289  and  _290
REMARK  117  A    between atoms: _289  and  _292
REMARK  118  A    between atoms: _292  and  _293
REMARK  119  A    between atoms: _293  and  _294
REMARK  120  A    between atoms: _294  and  _295
REMARK  121  A    between atoms: _304  and  _306
REMARK  122  A    between atoms: _306  and  _307
REMARK  123  A    between atoms: _306  and  _309
REMARK  124  A    between atoms: _309  and  _310
REMARK  125  A    between atoms: _310  and  _311
REMARK  126  A    between atoms: _311  and  _312
REMARK  127  A    between atoms: _312  and  _313
REMARK  128  A    between atoms: _317  and  _319
REMARK  129  A    between atoms: _319  and  _320
REMARK  130  A    between atoms: _322  and  _324
REMARK  131  A    between atoms: _324  and  _325
REMARK  132  A    between atoms: _328  and  _330
REMARK  133  A    between atoms: _330  and  _331
REMARK  134  A    between atoms: _330  and  _333
REMARK  135  A    between atoms: _333  and  _334
REMARK  136  A    between atoms: _339  and  _341
REMARK  137  A    between atoms: _341  and  _342
REMARK  138  A    between atoms: _345  and  _347
REMARK  139  A    between atoms: _347  and  _348
REMARK  140  A    between atoms: _351  and  _352
REMARK  141  A    between atoms: _357  and  _359
REMARK  142  A    between atoms: _359  and  _360
REMARK  143  A    between atoms: _359  and  _362
REMARK  144  A    between atoms: _362  and  _363
REMARK  145  A    between atoms: _366  and  _368
REMARK  146  A    between atoms: _368  and  _369
REMARK  147  A    between atoms: _368  and  _371
REMARK  148  A    between atoms: _371  and  _372
REMARK  149  A    between atoms: _382  and  _384
REMARK  150  A    between atoms: _384  and  _385
REMARK  151  A    between atoms: _384  and  _387
REMARK  152  A    between atoms: _387  and  _388
REMARK  153  A    between atoms: _394  and  _395
REMARK  154  A    between atoms: _400  and  _402
REMARK  155  A    between atoms: _402  and  _403
REMARK  156  A    between atoms: _402  and  _405
REMARK  157  A    between atoms: _405  and  _406
REMARK  158  A    between atoms: _409  and  _411
REMARK  159  A    between atoms: _411  and  _412
REMARK  160  A    between atoms: _411  and  _414
REMARK  161  A    between atoms: _414  and  _415
REMARK  162  A    between atoms: _417  and  _419
REMARK  163  A    between atoms: _419  and  _420
REMARK  164  A    between atoms: _419  and  _422
REMARK  165  A    between atoms: _422  and  _423
REMARK  166  A    between atoms: _428  and  _430
REMARK  167  A    between atoms: _430  and  _431
REMARK  168  A    between atoms: _430  and  _433
REMARK  169  A    between atoms: _436  and  _438
REMARK  170  A    between atoms: _438  and  _439
REMARK  171  A    between atoms: _438  and  _441
REMARK  172  A    between atoms: _441  and  _442
REMARK  173  A    between atoms: _442  and  _443
REMARK  174  A    between atoms: _449  and  _450
REMARK  175  A    between atoms: _455  and  _457
REMARK  176  A    between atoms: _457  and  _458
REMARK  177  A    between atoms: _457  and  _460
REMARK  178  A    between atoms: _460  and  _461
REMARK  179  A    between atoms: _464  and  _466
REMARK  180  A    between atoms: _466  and  _467
REMARK  181  A    between atoms: _466  and  _469
REMARK  182  A    between atoms: _469  and  _470
REMARK  183  A    between atoms: _473  and  _475
REMARK  184  A    between atoms: _475  and  _476
REMARK  185  A    between atoms: _475  and  _478
REMARK  186  A    between atoms: _478  and  _479
REMARK  187  A    between atoms: _481  and  _483
REMARK  188  A    between atoms: _483  and  _484
REMARK  189  A    between atoms: _483  and  _486
REMARK  190  A    between atoms: _486  and  _487
REMARK  191  A    between atoms: _492  and  _493
REMARK  192  A    between atoms: _495  and  _497
REMARK  193  A    between atoms: _497  and  _498
REMARK  194  A    between atoms: _497  and  _500
REMARK  195  A    between atoms: _500  and  _501
REMARK  196  A    between atoms: _506  and  _508
REMARK  197  A    between atoms: _508  and  _509
REMARK  198  A    between atoms: _508  and  _511
REMARK  199  A    between atoms: _511  and  _512
REMARK  200  A    between atoms: _515  and  _517
REMARK  201  A    between atoms: _517  and  _518
REMARK  202  A    between atoms: _517  and  _520
REMARK  203  A    between atoms: _520  and  _521
REMARK  204  A    between atoms: _531  and  _533
REMARK  205  A    between atoms: _533  and  _534
REMARK  206  A    between atoms: _536  and  _538
REMARK  207  A    between atoms: _538  and  _539
REMARK  208  A    between atoms: _538  and  _541
REMARK  209  A    between atoms: _541  and  _542
REMARK  210  A    between atoms: _547  and  _548
REMARK  211  A    between atoms: _550  and  _552
REMARK  212  A    between atoms: _552  and  _553
REMARK  213  A    between atoms: _552  and  _555
REMARK  214  A    between atoms: _555  and  _556
REMARK  215  A    between atoms: _556  and  _557
REMARK  216  A    between atoms: _557  and  _558
REMARK  217  A    between atoms: _567  and  _569
REMARK  218  A    between atoms: _569  and  _570
REMARK  219  A    between atoms: _569  and  _572
REMARK  220  A    between atoms: _572  and  _573
REMARK  221  A    between atoms: _573  and  _574
REMARK  222  A    between atoms: _574  and  _575
REMARK  223  A    between atoms: _575  and  _576
REMARK  224  A    between atoms: _580  and  _582
REMARK  225  A    between atoms: _582  and  _583
REMARK  226  A    between atoms: _585  and  _587
REMARK  227  A    between atoms: _587  and  _588
REMARK  228  A    between atoms: _591  and  _593
REMARK  229  A    between atoms: _593  and  _594
REMARK  230  A    between atoms: _593  and  _596
REMARK  231  A    between atoms: _596  and  _597
REMARK  232  A    between atoms: _602  and  _604
REMARK  233  A    between atoms: _604  and  _605
REMARK  234  A    between atoms: _608  and  _610
REMARK  235  A    between atoms: _610  and  _611
REMARK  236  A    between atoms: _614  and  _615
REMARK  237  A    between atoms: _620  and  _622
REMARK  238  A    between atoms: _622  and  _623
REMARK  239  A    between atoms: _622  and  _625
REMARK  240  A    between atoms: _625  and  _626
REMARK  241  A    between atoms: _629  and  _631
REMARK  242  A    between atoms: _631  and  _632
REMARK  243  A    between atoms: _631  and  _634
REMARK  244  A    between atoms: _634  and  _635
REMARK  245  A    between atoms: _645  and  _647
REMARK  246  A    between atoms: _647  and  _648
REMARK  247  A    between atoms: _647  and  _650
REMARK  248  A    between atoms: _650  and  _651
REMARK  249  A    between atoms: _657  and  _658
REMARK  250  A    between atoms: _663  and  _665
REMARK  251  A    between atoms: _665  and  _666
REMARK  252  A    between atoms: _665  and  _668
REMARK  253  A    between atoms: _668  and  _669
REMARK  254  A    between atoms: _672  and  _674
REMARK  255  A    between atoms: _674  and  _675
REMARK  256  A    between atoms: _674  and  _677
REMARK  257  A    between atoms: _677  and  _678
REMARK  258  A    between atoms: _678  and  _679
REMARK  259  A    between atoms: _682  and  _684
REMARK  260  A    between atoms: _684  and  _685
REMARK  261  A    between atoms: _684  and  _687
REMARK  262  A    between atoms: _687  and  _688
REMARK  263  A    between atoms: _688  and  _689
REMARK  264  A    between atoms: _689  and  _690
REMARK  265  A    between atoms: _690  and  _691
REMARK  266  A    between atoms: _695  and  _697
REMARK  267  A    between atoms: _697  and  _698
REMARK  268  A    between atoms: _700  and  _702
REMARK  269  A    between atoms: _702  and  _703
REMARK  270  A    between atoms: _702  and  _705
REMARK  271  A    between atoms: _705  and  _706
REMARK  272  A    between atoms: _711  and  _713
REMARK  273  A    between atoms: _713  and  _714
REMARK  274  A    between atoms: _713  and  _716
REMARK  275  A    between atoms: _716  and  _717
REMARK  276  A    between atoms: _717  and  _718
REMARK  277  A    between atoms: _718  and  _719
REMARK  278  A    between atoms: _728  and  _730
REMARK  279  A    between atoms: _730  and  _731
REMARK  280  A    between atoms: _730  and  _733
REMARK  281  A    between atoms: _733  and  _734
REMARK  282  A    between atoms: _737  and  _739
REMARK  283  A    between atoms: _739  and  _740
REMARK  284  A    between atoms: _739  and  _742
REMARK  285  A    between atoms: _745  and  _747
REMARK  286  A    between atoms: _747  and  _748
REMARK  287  A    between atoms: _747  and  _750
REMARK  288  A    between atoms: _750  and  _751
REMARK  289  A    between atoms: _751  and  _752
REMARK  290  A    between atoms: _758  and  _759
REMARK  291  A    between atoms: _764  and  _766
REMARK  292  A    between atoms: _766  and  _767
REMARK  293  A    between atoms: _766  and  _769
REMARK  294  A    between atoms: _769  and  _770
REMARK  295  A    between atoms: _773  and  _775
REMARK  296  A    between atoms: _775  and  _776
REMARK  297  A    between atoms: _775  and  _778
REMARK  298  A    between atoms: _778  and  _779
REMARK  299  A    between atoms: _782  and  _784
REMARK  300  A    between atoms: _784  and  _785
REMARK  301  A    between atoms: _784  and  _787
REMARK  302  A    between atoms: _787  and  _788
REMARK  303  A    between atoms: _790  and  _792
REMARK  304  A    between atoms: _792  and  _793
REMARK  305  A    between atoms: _792  and  _795
REMARK  306  A    between atoms: _795  and  _796
REMARK  307  A    between atoms: _796  and  _797
REMARK  308  A    between atoms: _797  and  _798
REMARK  309  A    between atoms: _807  and  _809
REMARK  310  A    between atoms: _809  and  _810
REMARK                            x       y       z     vdW  Elec       q    Type
REMARK                         _______ _______ _______ _____ _____    ______ ____
ROOT
ATOM      1  O   HOH     1     -20.697 -25.015 -14.980  0.00  0.00    +0.000 OA
ENDROOT
TORSDOF 0
REMARK  Name = ../refined-set-2016/3rt4/3rt4_pocket.pdb
REMARK  310 active torsions:
REMARK  status: ('A' for Active; 'I' for Inactive)
REMARK    1  A    between atoms: _1  and  _3
REMARK    2  A    between atoms: _3  and  _4
REMARK    3  A    between atoms: _3  and  _6
REMARK    4  A    between atoms: _6  and  _7
REMARK    5  A    between atoms: _7  and  _8
REMARK    6  A    between atoms: _8  and  _9
REMARK    7  A    between atoms: _18  and  _20
REMARK    8  A    between atoms: _20  and  _21
REMARK    9  A    between atoms: _20  and  _23
REMARK   10  A    between atoms: _26  and  _28
REMARK   11  A    between atoms: _28  and  _29
REMARK   12  A    between atoms: _28  and  _31
REMARK   13  A    between atoms: _31  and  _32
REMARK   14  A    between atoms: _32  and  _33
REMARK   15  A    between atoms: _33  and  _34
REMARK   16  A    between atoms: _43  and  _45
REMARK   17  A    between atoms: _45  and  _46
REMARK   18  A    between atoms: _45  and  _48
REMARK   19  A    between atoms: _48  and  _49
REMARK   20  A    between atoms: _51  and  _53
REMARK   21  A    between atoms: _53  and  _54
REMARK   22  A    between atoms: _53  and  _56
REMARK   23  A    between atoms: _56  and  _57
REMARK   24  A    between atoms: _62  and  _64
REMARK   25  A    between atoms: _64  and  _65
REMARK   26  A    between atoms: _64  and  _67
REMARK   27  A    between atoms: _67  and  _68
REMARK   28  A    between atoms: _73  and  _74
REMARK   29  A    between atoms: _76  and  _78
REMARK   30  A    between atoms: _78  and  _79
REMARK   31  A    between atoms: _78  and  _81
REMARK   32  A    between atoms: _81  and  _82
REMARK   33  A    between atoms: _82  and  _83
REMARK   34  A    between atoms: _86  and  _88
REMARK   35  A    between atoms: _88  and  _89
REMARK   36  A    between atoms: _88  and  _91
REMARK   37  A    between atoms: _91  and  _92
REMARK   38  A    between atoms: _92  and  _93
REMARK   39  A    between atoms: _93  and  _94
REMARK   40  A    between atoms: _94  and  _95
REMARK   41  A    between atoms: _99  and  _101
REMARK   42  A    between atoms: _101  and  _102
REMARK   43  A    between atoms: _101  and  _104
REMARK   44  A    between atoms: _104  and  _105
REMARK   45  A    between atoms: _110  and  _111
REMARK   46  A    between atoms: _113  and  _115
REMARK   47  A    between atoms: _115  and  _116
REMARK   48  A    between atoms: _115  and  _118
REMARK   49  A    between atoms: _118  and  _119
REMARK   50  A    between atoms: _119  and  _120
REMARK   51  A    between atoms: _120  and  _121
REMARK   52  A    between atoms: _130  and  _132
REMARK   53  A    between atoms: _132  and  _133
REMARK   54  A    between atoms: _136  and  _138
REMARK   55  A    between atoms: _138  and  _139
REMARK   56  A    between atoms: _138  and  _141
REMARK   57  A    between atoms: _141  and  _142
REMARK   58  A    between atoms: _142  and  _258
REMARK   59  A    between atoms: _143  and  _145
REMARK   60  A    between atoms: _145  and  _146
REMARK   61  A    between atoms: _145  and  _148
REMARK   62  A    between atoms: _148  and  _149
REMARK   63  A    between atoms: _149  and  _150
REMARK   64  A    between atoms: _153  and  _155
REMARK   65  A    between atoms: _155  and  _156
REMARK   66  A    between atoms: _155  and  _158
REMARK   67  A    between atoms: _158  and  _159
REMARK   68  A    between atoms: _161  and  _163
REMARK   69  A    between atoms: _163  and  _164
REMARK   70  A    between atoms: _163  and  _166
REMARK   71  A    between atoms: _166  and  _167
REMARK   72  A    between atoms: _172  and  _173
REMARK   73  A    between atoms: _175  and  _177
REMARK   74  A    between atoms: _177  and  _178
REMARK   75  A    between atoms: _177  and  _180
REMARK   76  A    between atoms: _180  and  _181
REMARK   77  A    between atoms: _186  and  _188
REMARK   78  A    between atoms: _188  and  _189
REMARK   79  A    between atoms: _188  and  _191
REMARK   80  A    between atoms: _194  and  _196
REMARK   81  A    between atoms: _196  and  _197
REMARK   82  A    between atoms: _196  and  _199
REMARK   83  A    between atoms: _199  and  _200
REMARK   84  A    between atoms: _200  and  _201
REMARK   85  A    between atoms: _201  and  _202
REMARK   86  A    between atoms: _211  and  _213
REMARK   87  A    between atoms: _213  and  _214
REMARK   88  A    between atoms: _213  and  _216
REMARK   89  A    between atoms: _216  and  _217
REMARK   90  A    between atoms: _222  and  _224
REMARK   91  A    between atoms: _224  and  _225
REMARK   92  A    between atoms: _224  and  _227
REMARK   93  A    between atoms: _227  and  _228
REMARK   94  A    between atoms: _231  and  _233
REMARK   95  A    between atoms: _233  and  _234
REMARK   96  A    between atoms: _236  and  _238
REMARK   97  A    between atoms: _238  and  _239
REMARK   98  A    between atoms: _238  and  _241
REMARK   99  A    between atoms: _241  and  _242
REMARK  100  A    between atoms: _252  and  _254
REMARK  101  A    between atoms: _254  and  _255
REMARK  102  A    between atoms: _254  and  _257
REMARK  103  A    between atoms: _257  and  _258
REMARK  104  A    between atoms: _259  and  _261
REMARK  105  A    between atoms: _261  and  _262
REMARK  106  A    between atoms: _261  and  _264
REMARK  107  A    between atoms: _264  and  _265
REMARK  108  A    between atoms: _268  and  _270
REMARK  109  A    between atoms: _270  and  _271
REMARK  110  A    between atoms: _273  and  _275
REMARK  111  A    between atoms: _275  and  _276
REMARK  112  A    between atoms: _275  and  _278
REMARK  113  A    between atoms: _278  and  _279
REMARK  114  A    between atoms: _284  and  _285
REMARK  115  A    between atoms: _287  and  _289
REMARK  116  A    between atoms: _289  and  _290
REMARK  117  A    between atoms: _289  and  _292
REMARK  118  A    between atoms: _292  and  _293
REMARK  119  A    between atoms: _293  and  _294
REMARK  120  A    between atoms: _294  and  _295
REMARK  121  A    between atoms: _304  and  _306
REMARK  122  A    between atoms: _306  and  _307
REMARK  123  A    between atoms: _306  and  _309
REMARK  124  A    between atoms: _309  and  _310
REMARK  125  A    between atoms: _310  and  _311
REMARK  126  A    between atoms: _311  and  _312
REMARK  127  A    between atoms: _312  and  _313
REMARK  128  A    between atoms: _317  and  _319
REMARK  129  A    between atoms: _319  and  _320
REMARK  130  A    between atoms: _322  and  _324
REMARK  131  A    between atoms: _324  and  _325
REMARK  132  A    between atoms: _328  and  _330
REMARK  133  A    between atoms: _330  and  _331
REMARK  134  A    between atoms: _330  and  _333
REMARK  135  A    between atoms: _333  and  _334
REMARK  136  A    between atoms: _339  and  _341
REMARK  137  A    between atoms: _341  and  _342
REMARK  138  A    between atoms: _345  and  _347
REMARK  139  A    between atoms: _347  and  _348
REMARK  140  A    between atoms: _351  and  _352
REMARK  141  A    between atoms: _357  and  _359
REMARK  142  A    between atoms: _359  and  _360
REMARK  143  A    between atoms: _359  and  _362
REMARK  144  A    between atoms: _362  and  _363
REMARK  145  A    between atoms: _366  and  _368
REMARK  146  A    between atoms: _368  and  _369
REMARK  147  A    between atoms: _368  and  _371
REMARK  148  A    between atoms: _371  and  _372
REMARK  149  A    between atoms: _382  and  _384
REMARK  150  A    between atoms: _384  and  _385
REMARK  151  A    between atoms: _384  and  _387
REMARK  152  A    between atoms: _387  and  _388
REMARK  153  A    between atoms: _394  and  _395
REMARK  154  A    between atoms: _400  and  _402
REMARK  155  A    between atoms: _402  and  _403
REMARK  156  A    between atoms: _402  and  _405
REMARK  157  A    between atoms: _405  and  _406
REMARK  158  A    between atoms: _409  and  _411
REMARK  159  A    between atoms: _411  and  _412
REMARK  160  A    between atoms: _411  and  _414
REMARK  161  A    between atoms: _414  and  _415
REMARK  162  A    between atoms: _417  and  _419
REMARK  163  A    between atoms: _419  and  _420
REMARK  164  A    between atoms: _419  and  _422
REMARK  165  A    between atoms: _422  and  _423
REMARK  166  A    between atoms: _428  and  _430
REMARK  167  A    between atoms: _430  and  _431
REMARK  168  A    between atoms: _430  and  _433
REMARK  169  A    between atoms: _436  and  _438
REMARK  170  A    between atoms: _438  and  _439
REMARK  171  A    between atoms: _438  and  _441
REMARK  172  A    between atoms: _441  and  _442
REMARK  173  A    between atoms: _442  and  _443
REMARK  174  A    between atoms: _449  and  _450
REMARK  175  A    between atoms: _455  and  _457
REMARK  176  A    between atoms: _457  and  _458
REMARK  177  A    between atoms: _457  and  _460
REMARK  178  A    between atoms: _460  and  _461
REMARK  179  A    between atoms: _464  and  _466
REMARK  180  A    between atoms: _466  and  _467
REMARK  181  A    between atoms: _466  and  _469
REMARK  182  A    between atoms: _469  and  _470
REMARK  183  A    between atoms: _473  and  _475
REMARK  184  A    between atoms: _475  and  _476
REMARK  185  A    between atoms: _475  and  _478
REMARK  186  A    between atoms: _478  and  _479
REMARK  187  A    between atoms: _481  and  _483
REMARK  188  A    between atoms: _483  and  _484
REMARK  189  A    between atoms: _483  and  _486
REMARK  190  A    between atoms: _486  and  _487
REMARK  191  A    between atoms: _492  and  _493
REMARK  192  A    between atoms: _495  and  _497
REMARK  193  A    between atoms: _497  and  _498
REMARK  194  A    between atoms: _497  and  _500
REMARK  195  A    between atoms: _500  and  _501
REMARK  196  A    between atoms: _506  and  _508
REMARK  197  A    between atoms: _508  and  _509
REMARK  198  A    between atoms: _508  and  _511
REMARK  199  A    between atoms: _511  and  _512
REMARK  200  A    between atoms: _515  and  _517
REMARK  201  A    between atoms: _517  and  _518
REMARK  202  A    between atoms: _517  and  _520
REMARK  203  A    between atoms: _520  and  _521
REMARK  204  A    between atoms: _531  and  _533
REMARK  205  A    between atoms: _533  and  _534
REMARK  206  A    between atoms: _536  and  _538
REMARK  207  A    between atoms: _538  and  _539
REMARK  208  A    between atoms: _538  and  _541
REMARK  209  A    between atoms: _541  and  _542
REMARK  210  A    between atoms: _547  and  _548
REMARK  211  A    between atoms: _550  and  _552
REMARK  212  A    between atoms: _552  and  _553
REMARK  213  A    between atoms: _552  and  _555
REMARK  214  A    between atoms: _555  and  _556
REMARK  215  A    between atoms: _556  and  _557
REMARK  216  A    between atoms: _557  and  _558
REMARK  217  A    between atoms: _567  and  _569
REMARK  218  A    between atoms: _569  and  _570
REMARK  219  A    between atoms: _569  and  _572
REMARK  220  A    between atoms: _572  and  _573
REMARK  221  A    between atoms: _573  and  _574
REMARK  222  A    between atoms: _574  and  _575
REMARK  223  A    between atoms: _575  and  _576
REMARK  224  A    between atoms: _580  and  _582
REMARK  225  A    between atoms: _582  and  _583
REMARK  226  A    between atoms: _585  and  _587
REMARK  227  A    between atoms: _587  and  _588
REMARK  228  A    between atoms: _591  and  _593
REMARK  229  A    between atoms: _593  and  _594
REMARK  230  A    between atoms: _593  and  _596
REMARK  231  A    between atoms: _596  and  _597
REMARK  232  A    between atoms: _602  and  _604
REMARK  233  A    between atoms: _604  and  _605
REMARK  234  A    between atoms: _608  and  _610
REMARK  235  A    between atoms: _610  and  _611
REMARK  236  A    between atoms: _614  and  _615
REMARK  237  A    between atoms: _620  and  _622
REMARK  238  A    between atoms: _622  and  _623
REMARK  239  A    between atoms: _622  and  _625
REMARK  240  A    between atoms: _625  and  _626
REMARK  241  A    between atoms: _629  and  _631
REMARK  242  A    between atoms: _631  and  _632
REMARK  243  A    between atoms: _631  and  _634
REMARK  244  A    between atoms: _634  and  _635
REMARK  245  A    between atoms: _645  and  _647
REMARK  246  A    between atoms: _647  and  _648
REMARK  247  A    between atoms: _647  and  _650
REMARK  248  A    between atoms: _650  and  _651
REMARK  249  A    between atoms: _657  and  _658
REMARK  250  A    between atoms: _663  and  _665
REMARK  251  A    between atoms: _665  and  _666
REMARK  252  A    between atoms: _665  and  _668
REMARK  253  A    between atoms: _668  and  _669
REMARK  254  A    between atoms: _672  and  _674
REMARK  255  A    between atoms: _674  and  _675
REMARK  256  A    between atoms: _674  and  _677
REMARK  257  A    between atoms: _677  and  _678
REMARK  258  A    between atoms: _678  and  _679
REMARK  259  A    between atoms: _682  and  _684
REMARK  260  A    between atoms: _684  and  _685
REMARK  261  A    between atoms: _684  and  _687
REMARK  262  A    between atoms: _687  and  _688
REMARK  263  A    between atoms: _688  and  _689
REMARK  264  A    between atoms: _689  and  _690
REMARK  265  A    between atoms: _690  and  _691
REMARK  266  A    between atoms: _695  and  _697
REMARK  267  A    between atoms: _697  and  _698
REMARK  268  A    between atoms: _700  and  _702
REMARK  269  A    between atoms: _702  and  _703
REMARK  270  A    between atoms: _702  and  _705
REMARK  271  A    between atoms: _705  and  _706
REMARK  272  A    between atoms: _711  and  _713
REMARK  273  A    between atoms: _713  and  _714
REMARK  274  A    between atoms: _713  and  _716
REMARK  275  A    between atoms: _716  and  _717
REMARK  276  A    between atoms: _717  and  _718
REMARK  277  A    between atoms: _718  and  _719
REMARK  278  A    between atoms: _728  and  _730
REMARK  279  A    between atoms: _730  and  _731
REMARK  280  A    between atoms: _730  and  _733
REMARK  281  A    between atoms: _733  and  _734
REMARK  282  A    between atoms: _737  and  _739
REMARK  283  A    between atoms: _739  and  _740
REMARK  284  A    between atoms: _739  and  _742
REMARK  285  A    between atoms: _745  and  _747
REMARK  286  A    between atoms: _747  and  _748
REMARK  287  A    between atoms: _747  and  _750
REMARK  288  A    between atoms: _750  and  _751
REMARK  289  A    between atoms: _751  and  _752
REMARK  290  A    between atoms: _758  and  _759
REMARK  291  A    between atoms: _764  and  _766
REMARK  292  A    between atoms: _766  and  _767
REMARK  293  A    between atoms: _766  and  _769
REMARK  294  A    between atoms: _769  and  _770
REMARK  295  A    between atoms: _773  and  _775
REMARK  296  A    between atoms: _775  and  _776
REMARK  297  A    between atoms: _775  and  _778
REMARK  298  A    between atoms: _778  and  _779
REMARK  299  A    between atoms: _782  and  _784
REMARK  300  A    between atoms: _784  and  _785
REMARK  301  A    between atoms: _784  and  _787
REMARK  302  A    between atoms: _787  and  _788
REMARK  303  A    between atoms: _790  and  _792
REMARK  304  A    between atoms: _792  and  _793
REMARK  305  A    between atoms: _792  and  _795
REMARK  306  A    between atoms: _795  and  _796
REMARK  307  A    between atoms: _796  and  _797
REMARK  308  A    between atoms: _797  and  _798
REMARK  309  A    between atoms: _807  and  _809
REMARK  310  A    between atoms: _809  and  _810
REMARK                            x       y       z     vdW  Elec       q    Type
REMARK                         _______ _______ _______ _____ _____    ______ ____
ROOT
ATOM      1  O   HOH     1     -34.125 -33.494 -12.800  0.00  0.00    +0.000 OA
ENDROOT
TORSDOF 0
REMARK  Name = ../refined-set-2016/3rt4/3rt4_pocket.pdb
REMARK  310 active torsions:
REMARK  status: ('A' for Active; 'I' for Inactive)
REMARK    1  A    between atoms: _1  and  _3
REMARK    2  A    between atoms: _3  and  _4
REMARK    3  A    between atoms: _3  and  _6
REMARK    4  A    between atoms: _6  and  _7
REMARK    5  A    between atoms: _7  and  _8
REMARK    6  A    between atoms: _8  and  _9
REMARK    7  A    between atoms: _18  and  _20
REMARK    8  A    between atoms: _20  and  _21
REMARK    9  A    between atoms: _20  and  _23
REMARK   10  A    between atoms: _26  and  _28
REMARK   11  A    between atoms: _28  and  _29
REMARK   12  A    between atoms: _28  and  _31
REMARK   13  A    between atoms: _31  and  _32
REMARK   14  A    between atoms: _32  and  _33
REMARK   15  A    between atoms: _33  and  _34
REMARK   16  A    between atoms: _43  and  _45
REMARK   17  A    between atoms: _45  and  _46
REMARK   18  A    between atoms: _45  and  _48
REMARK   19  A    between atoms: _48  and  _49
REMARK   20  A    between atoms: _51  and  _53
REMARK   21  A    between atoms: _53  and  _54
REMARK   22  A    between atoms: _53  and  _56
REMARK   23  A    between atoms: _56  and  _57
REMARK   24  A    between atoms: _62  and  _64
REMARK   25  A    between atoms: _64  and  _65
REMARK   26  A    between atoms: _64  and  _67
REMARK   27  A    between atoms: _67  and  _68
REMARK   28  A    between atoms: _73  and  _74
REMARK   29  A    between atoms: _76  and  _78
REMARK   30  A    between atoms: _78  and  _79
REMARK   31  A    between atoms: _78  and  _81
REMARK   32  A    between atoms: _81  and  _82
REMARK   33  A    between atoms: _82  and  _83
REMARK   34  A    between atoms: _86  and  _88
REMARK   35  A    between atoms: _88  and  _89
REMARK   36  A    between atoms: _88  and  _91
REMARK   37  A    between atoms: _91  and  _92
REMARK   38  A    between atoms: _92  and  _93
REMARK   39  A    between atoms: _93  and  _94
REMARK   40  A    between atoms: _94  and  _95
REMARK   41  A    between atoms: _99  and  _101
REMARK   42  A    between atoms: _101  and  _102
REMARK   43  A    between atoms: _101  and  _104
REMARK   44  A    between atoms: _104  and  _105
REMARK   45  A    between atoms: _110  and  _111
REMARK   46  A    between atoms: _113  and  _115
REMARK   47  A    between atoms: _115  and  _116
REMARK   48  A    between atoms: _115  and  _118
REMARK   49  A    between atoms: _118  and  _119
REMARK   50  A    between atoms: _119  and  _120
REMARK   51  A    between atoms: _120  and  _121
REMARK   52  A    between atoms: _130  and  _132
REMARK   53  A    between atoms: _132  and  _133
REMARK   54  A    between atoms: _136  and  _138
REMARK   55  A    between atoms: _138  and  _139
REMARK   56  A    between atoms: _138  and  _141
REMARK   57  A    between atoms: _141  and  _142
REMARK   58  A    between atoms: _142  and  _258
REMARK   59  A    between atoms: _143  and  _145
REMARK   60  A    between atoms: _145  and  _146
REMARK   61  A    between atoms: _145  and  _148
REMARK   62  A    between atoms: _148  and  _149
REMARK   63  A    between atoms: _149  and  _150
REMARK   64  A    between atoms: _153  and  _155
REMARK   65  A    between atoms: _155  and  _156
REMARK   66  A    between atoms: _155  and  _158
REMARK   67  A    between atoms: _158  and  _159
REMARK   68  A    between atoms: _161  and  _163
REMARK   69  A    between atoms: _163  and  _164
REMARK   70  A    between atoms: _163  and  _166
REMARK   71  A    between atoms: _166  and  _167
REMARK   72  A    between atoms: _172  and  _173
REMARK   73  A    between atoms: _175  and  _177
REMARK   74  A    between atoms: _177  and  _178
REMARK   75  A    between atoms: _177  and  _180
REMARK   76  A    between atoms: _180  and  _181
REMARK   77  A    between atoms: _186  and  _188
REMARK   78  A    between atoms: _188  and  _189
REMARK   79  A    between atoms: _188  and  _191
REMARK   80  A    between atoms: _194  and  _196
REMARK   81  A    between atoms: _196  and  _197
REMARK   82  A    between atoms: _196  and  _199
REMARK   83  A    between atoms: _199  and  _200
REMARK   84  A    between atoms: _200  and  _201
REMARK   85  A    between atoms: _201  and  _202
REMARK   86  A    between atoms: _211  and  _213
REMARK   87  A    between atoms: _213  and  _214
REMARK   88  A    between atoms: _213  and  _216
REMARK   89  A    between atoms: _216  and  _217
REMARK   90  A    between atoms: _222  and  _224
REMARK   91  A    between atoms: _224  and  _225
REMARK   92  A    between atoms: _224  and  _227
REMARK   93  A    between atoms: _227  and  _228
REMARK   94  A    between atoms: _231  and  _233
REMARK   95  A    between atoms: _233  and  _234
REMARK   96  A    between atoms: _236  and  _238
REMARK   97  A    between atoms: _238  and  _239
REMARK   98  A    between atoms: _238  and  _241
REMARK   99  A    between atoms: _241  and  _242
REMARK  100  A    between atoms: _252  and  _254
REMARK  101  A    between atoms: _254  and  _255
REMARK  102  A    between atoms: _254  and  _257
REMARK  103  A    between atoms: _257  and  _258
REMARK  104  A    between atoms: _259  and  _261
REMARK  105  A    between atoms: _261  and  _262
REMARK  106  A    between atoms: _261  and  _264
REMARK  107  A    between atoms: _264  and  _265
REMARK  108  A    between atoms: _268  and  _270
REMARK  109  A    between atoms: _270  and  _271
REMARK  110  A    between atoms: _273  and  _275
REMARK  111  A    between atoms: _275  and  _276
REMARK  112  A    between atoms: _275  and  _278
REMARK  113  A    between atoms: _278  and  _279
REMARK  114  A    between atoms: _284  and  _285
REMARK  115  A    between atoms: _287  and  _289
REMARK  116  A    between atoms: _289  and  _290
REMARK  117  A    between atoms: _289  and  _292
REMARK  118  A    between atoms: _292  and  _293
REMARK  119  A    between atoms: _293  and  _294
REMARK  120  A    between atoms: _294  and  _295
REMARK  121  A    between atoms: _304  and  _306
REMARK  122  A    between atoms: _306  and  _307
REMARK  123  A    between atoms: _306  and  _309
REMARK  124  A    between atoms: _309  and  _310
REMARK  125  A    between atoms: _310  and  _311
REMARK  126  A    between atoms: _311  and  _312
REMARK  127  A    between atoms: _312  and  _313
REMARK  128  A    between atoms: _317  and  _319
REMARK  129  A    between atoms: _319  and  _320
REMARK  130  A    between atoms: _322  and  _324
REMARK  131  A    between atoms: _324  and  _325
REMARK  132  A    between atoms: _328  and  _330
REMARK  133  A    between atoms: _330  and  _331
REMARK  134  A    between atoms: _330  and  _333
REMARK  135  A    between atoms: _333  and  _334
REMARK  136  A    between atoms: _339  and  _341
REMARK  137  A    between atoms: _341  and  _342
REMARK  138  A    between atoms: _345  and  _347
REMARK  139  A    between atoms: _347  and  _348
REMARK  140  A    between atoms: _351  and  _352
REMARK  141  A    between atoms: _357  and  _359
REMARK  142  A    between atoms: _359  and  _360
REMARK  143  A    between atoms: _359  and  _362
REMARK  144  A    between atoms: _362  and  _363
REMARK  145  A    between atoms: _366  and  _368
REMARK  146  A    between atoms: _368  and  _369
REMARK  147  A    between atoms: _368  and  _371
REMARK  148  A    between atoms: _371  and  _372
REMARK  149  A    between atoms: _382  and  _384
REMARK  150  A    between atoms: _384  and  _385
REMARK  151  A    between atoms: _384  and  _387
REMARK  152  A    between atoms: _387  and  _388
REMARK  153  A    between atoms: _394  and  _395
REMARK  154  A    between atoms: _400  and  _402
REMARK  155  A    between atoms: _402  and  _403
REMARK  156  A    between atoms: _402  and  _405
REMARK  157  A    between atoms: _405  and  _406
REMARK  158  A    between atoms: _409  and  _411
REMARK  159  A    between atoms: _411  and  _412
REMARK  160  A    between atoms: _411  and  _414
REMARK  161  A    between atoms: _414  and  _415
REMARK  162  A    between atoms: _417  and  _419
REMARK  163  A    between atoms: _419  and  _420
REMARK  164  A    between atoms: _419  and  _422
REMARK  165  A    between atoms: _422  and  _423
REMARK  166  A    between atoms: _428  and  _430
REMARK  167  A    between atoms: _430  and  _431
REMARK  168  A    between atoms: _430  and  _433
REMARK  169  A    between atoms: _436  and  _438
REMARK  170  A    between atoms: _438  and  _439
REMARK  171  A    between atoms: _438  and  _441
REMARK  172  A    between atoms: _441  and  _442
REMARK  173  A    between atoms: _442  and  _443
REMARK  174  A    between atoms: _449  and  _450
REMARK  175  A    between atoms: _455  and  _457
REMARK  176  A    between atoms: _457  and  _458
REMARK  177  A    between atoms: _457  and  _460
REMARK  178  A    between atoms: _460  and  _461
REMARK  179  A    between atoms: _464  and  _466
REMARK  180  A    between atoms: _466  and  _467
REMARK  181  A    between atoms: _466  and  _469
REMARK  182  A    between atoms: _469  and  _470
REMARK  183  A    between atoms: _473  and  _475
REMARK  184  A    between atoms: _475  and  _476
REMARK  185  A    between atoms: _475  and  _478
REMARK  186  A    between atoms: _478  and  _479
REMARK  187  A    between atoms: _481  and  _483
REMARK  188  A    between atoms: _483  and  _484
REMARK  189  A    between atoms: _483  and  _486
REMARK  190  A    between atoms: _486  and  _487
REMARK  191  A    between atoms: _492  and  _493
REMARK  192  A    between atoms: _495  and  _497
REMARK  193  A    between atoms: _497  and  _498
REMARK  194  A    between atoms: _497  and  _500
REMARK  195  A    between atoms: _500  and  _501
REMARK  196  A    between atoms: _506  and  _508
REMARK  197  A    between atoms: _508  and  _509
REMARK  198  A    between atoms: _508  and  _511
REMARK  199  A    between atoms: _511  and  _512
REMARK  200  A    between atoms: _515  and  _517
REMARK  201  A    between atoms: _517  and  _518
REMARK  202  A    between atoms: _517  and  _520
REMARK  203  A    between atoms: _520  and  _521
REMARK  204  A    between atoms: _531  and  _533
REMARK  205  A    between atoms: _533  and  _534
REMARK  206  A    between atoms: _536  and  _538
REMARK  207  A    between atoms: _538  and  _539
REMARK  208  A    between atoms: _538  and  _541
REMARK  209  A    between atoms: _541  and  _542
REMARK  210  A    between atoms: _547  and  _548
REMARK  211  A    between atoms: _550  and  _552
REMARK  212  A    between atoms: _552  and  _553
REMARK  213  A    between atoms: _552  and  _555
REMARK  214  A    between atoms: _555  and  _556
REMARK  215  A    between atoms: _556  and  _557
REMARK  216  A    between atoms: _557  and  _558
REMARK  217  A    between atoms: _567  and  _569
REMARK  218  A    between atoms: _569  and  _570
REMARK  219  A    between atoms: _569  and  _572
REMARK  220  A    between atoms: _572  and  _573
REMARK  221  A    between atoms: _573  and  _574
REMARK  222  A    between atoms: _574  and  _575
REMARK  223  A    between atoms: _575  and  _576
REMARK  224  A    between atoms: _580  and  _582
REMARK  225  A    between atoms: _582  and  _583
REMARK  226  A    between atoms: _585  and  _587
REMARK  227  A    between atoms: _587  and  _588
REMARK  228  A    between atoms: _591  and  _593
REMARK  229  A    between atoms: _593  and  _594
REMARK  230  A    between atoms: _593  and  _596
REMARK  231  A    between atoms: _596  and  _597
REMARK  232  A    between atoms: _602  and  _604
REMARK  233  A    between atoms: _604  and  _605
REMARK  234  A    between atoms: _608  and  _610
REMARK  235  A    between atoms: _610  and  _611
REMARK  236  A    between atoms: _614  and  _615
REMARK  237  A    between atoms: _620  and  _622
REMARK  238  A    between atoms: _622  and  _623
REMARK  239  A    between atoms: _622  and  _625
REMARK  240  A    between atoms: _625  and  _626
REMARK  241  A    between atoms: _629  and  _631
REMARK  242  A    between atoms: _631  and  _632
REMARK  243  A    between atoms: _631  and  _634
REMARK  244  A    between atoms: _634  and  _635
REMARK  245  A    between atoms: _645  and  _647
REMARK  246  A    between atoms: _647  and  _648
REMARK  247  A    between atoms: _647  and  _650
REMARK  248  A    between atoms: _650  and  _651
REMARK  249  A    between atoms: _657  and  _658
REMARK  250  A    between atoms: _663  and  _665
REMARK  251  A    between atoms: _665  and  _666
REMARK  252  A    between atoms: _665  and  _668
REMARK  253  A    between atoms: _668  and  _669
REMARK  254  A    between atoms: _672  and  _674
REMARK  255  A    between atoms: _674  and  _675
REMARK  256  A    between atoms: _674  and  _677
REMARK  257  A    between atoms: _677  and  _678
REMARK  258  A    between atoms: _678  and  _679
REMARK  259  A    between atoms: _682  and  _684
REMARK  260  A    between atoms: _684  and  _685
REMARK  261  A    between atoms: _684  and  _687
REMARK  262  A    between atoms: _687  and  _688
REMARK  263  A    between atoms: _688  and  _689
REMARK  264  A    between atoms: _689  and  _690
REMARK  265  A    between atoms: _690  and  _691
REMARK  266  A    between atoms: _695  and  _697
REMARK  267  A    between atoms: _697  and  _698
REMARK  268  A    between atoms: _700  and  _702
REMARK  269  A    between atoms: _702  and  _703
REMARK  270  A    between atoms: _702  and  _705
REMARK  271  A    between atoms: _705  and  _706
REMARK  272  A    between atoms: _711  and  _713
REMARK  273  A    between atoms: _713  and  _714
REMARK  274  A    between atoms: _713  and  _716
REMARK  275  A    between atoms: _716  and  _717
REMARK  276  A    between atoms: _717  and  _718
REMARK  277  A    between atoms: _718  and  _719
REMARK  278  A    between atoms: _728  and  _730
REMARK  279  A    between atoms: _730  and  _731
REMARK  280  A    between atoms: _730  and  _733
REMARK  281  A    between atoms: _733  and  _734
REMARK  282  A    between atoms: _737  and  _739
REMARK  283  A    between atoms: _739  and  _740
REMARK  284  A    between atoms: _739  and  _742
REMARK  285  A    between atoms: _745  and  _747
REMARK  286  A    between atoms: _747  and  _748
REMARK  287  A    between atoms: _747  and  _750
REMARK  288  A    between atoms: _750  and  _751
REMARK  289  A    between atoms: _751  and  _752
REMARK  290  A    between atoms: _758  and  _759
REMARK  291  A    between atoms: _764  and  _766
REMARK  292  A    between atoms: _766  and  _767
REMARK  293  A    between atoms: _766  and  _769
REMARK  294  A    between atoms: _769  and  _770
REMARK  295  A    between atoms: _773  and  _775
REMARK  296  A    between atoms: _775  and  _776
REMARK  297  A    between atoms: _775  and  _778
REMARK  298  A    between atoms: _778  and  _779
REMARK  299  A    between atoms: _782  and  _784
REMARK  300  A    between atoms: _784  and  _785
REMARK  301  A    between atoms: _784  and  _787
REMARK  302  A    between atoms: _787  and  _788
REMARK  303  A    between atoms: _790  and  _792
REMARK  304  A    between atoms: _792  and  _793
REMARK  305  A    between atoms: _792  and  _795
REMARK  306  A    between atoms: _795  and  _796
REMARK  307  A    between atoms: _796  and  _797
REMARK  308  A    between atoms: _797  and  _798
REMARK  309  A    between atoms: _807  and  _809
REMARK  310  A    between atoms: _809  and  _810
REMARK                            x       y       z     vdW  Elec       q    Type
REMARK                         _______ _______ _______ _____ _____    ______ ____
ROOT
ATOM      1  O   HOH     1     -21.371 -37.678 -22.020  0.00  0.00    +0.000 OA
ENDROOT
TORSDOF 0
REMARK  Name = ../refined-set-2016/3rt4/3rt4_pocket.pdb
REMARK  310 active torsions:
REMARK  status: ('A' for Active; 'I' for Inactive)
REMARK    1  A    between atoms: _1  and  _3
REMARK    2  A    between atoms: _3  and  _4
REMARK    3  A    between atoms: _3  and  _6
REMARK    4  A    between atoms: _6  and  _7
REMARK    5  A    between atoms: _7  and  _8
REMARK    6  A    between atoms: _8  and  _9
REMARK    7  A    between atoms: _18  and  _20
REMARK    8  A    between atoms: _20  and  _21
REMARK    9  A    between atoms: _20  and  _23
REMARK   10  A    between atoms: _26  and  _28
REMARK   11  A    between atoms: _28  and  _29
REMARK   12  A    between atoms: _28  and  _31
REMARK   13  A    between atoms: _31  and  _32
REMARK   14  A    between atoms: _32  and  _33
REMARK   15  A    between atoms: _33  and  _34
REMARK   16  A    between atoms: _43  and  _45
REMARK   17  A    between atoms: _45  and  _46
REMARK   18  A    between atoms: _45  and  _48
REMARK   19  A    between atoms: _48  and  _49
REMARK   20  A    between atoms: _51  and  _53
REMARK   21  A    between atoms: _53  and  _54
REMARK   22  A    between atoms: _53  and  _56
REMARK   23  A    between atoms: _56  and  _57
REMARK   24  A    between atoms: _62  and  _64
REMARK   25  A    between atoms: _64  and  _65
REMARK   26  A    between atoms: _64  and  _67
REMARK   27  A    between atoms: _67  and  _68
REMARK   28  A    between atoms: _73  and  _74
REMARK   29  A    between atoms: _76  and  _78
REMARK   30  A    between atoms: _78  and  _79
REMARK   31  A    between atoms: _78  and  _81
REMARK   32  A    between atoms: _81  and  _82
REMARK   33  A    between atoms: _82  and  _83
REMARK   34  A    between atoms: _86  and  _88
REMARK   35  A    between atoms: _88  and  _89
REMARK   36  A    between atoms: _88  and  _91
REMARK   37  A    between atoms: _91  and  _92
REMARK   38  A    between atoms: _92  and  _93
REMARK   39  A    between atoms: _93  and  _94
REMARK   40  A    between atoms: _94  and  _95
REMARK   41  A    between atoms: _99  and  _101
REMARK   42  A    between atoms: _101  and  _102
REMARK   43  A    between atoms: _101  and  _104
REMARK   44  A    between atoms: _104  and  _105
REMARK   45  A    between atoms: _110  and  _111
REMARK   46  A    between atoms: _113  and  _115
REMARK   47  A    between atoms: _115  and  _116
REMARK   48  A    between atoms: _115  and  _118
REMARK   49  A    between atoms: _118  and  _119
REMARK   50  A    between atoms: _119  and  _120
REMARK   51  A    between atoms: _120  and  _121
REMARK   52  A    between atoms: _130  and  _132
REMARK   53  A    between atoms: _132  and  _133
REMARK   54  A    between atoms: _136  and  _138
REMARK   55  A    between atoms: _138  and  _139
REMARK   56  A    between atoms: _138  and  _141
REMARK   57  A    between atoms: _141  and  _142
REMARK   58  A    between atoms: _142  and  _258
REMARK   59  A    between atoms: _143  and  _145
REMARK   60  A    between atoms: _145  and  _146
REMARK   61  A    between atoms: _145  and  _148
REMARK   62  A    between atoms: _148  and  _149
REMARK   63  A    between atoms: _149  and  _150
REMARK   64  A    between atoms: _153  and  _155
REMARK   65  A    between atoms: _155  and  _156
REMARK   66  A    between atoms: _155  and  _158
REMARK   67  A    between atoms: _158  and  _159
REMARK   68  A    between atoms: _161  and  _163
REMARK   69  A    between atoms: _163  and  _164
REMARK   70  A    between atoms: _163  and  _166
REMARK   71  A    between atoms: _166  and  _167
REMARK   72  A    between atoms: _172  and  _173
REMARK   73  A    between atoms: _175  and  _177
REMARK   74  A    between atoms: _177  and  _178
REMARK   75  A    between atoms: _177  and  _180
REMARK   76  A    between atoms: _180  and  _181
REMARK   77  A    between atoms: _186  and  _188
REMARK   78  A    between atoms: _188  and  _189
REMARK   79  A    between atoms: _188  and  _191
REMARK   80  A    between atoms: _194  and  _196
REMARK   81  A    between atoms: _196  and  _197
REMARK   82  A    between atoms: _196  and  _199
REMARK   83  A    between atoms: _199  and  _200
REMARK   84  A    between atoms: _200  and  _201
REMARK   85  A    between atoms: _201  and  _202
REMARK   86  A    between atoms: _211  and  _213
REMARK   87  A    between atoms: _213  and  _214
REMARK   88  A    between atoms: _213  and  _216
REMARK   89  A    between atoms: _216  and  _217
REMARK   90  A    between atoms: _222  and  _224
REMARK   91  A    between atoms: _224  and  _225
REMARK   92  A    between atoms: _224  and  _227
REMARK   93  A    between atoms: _227  and  _228
REMARK   94  A    between atoms: _231  and  _233
REMARK   95  A    between atoms: _233  and  _234
REMARK   96  A    between atoms: _236  and  _238
REMARK   97  A    between atoms: _238  and  _239
REMARK   98  A    between atoms: _238  and  _241
REMARK   99  A    between atoms: _241  and  _242
REMARK  100  A    between atoms: _252  and  _254
REMARK  101  A    between atoms: _254  and  _255
REMARK  102  A    between atoms: _254  and  _257
REMARK  103  A    between atoms: _257  and  _258
REMARK  104  A    between atoms: _259  and  _261
REMARK  105  A    between atoms: _261  and  _262
REMARK  106  A    between atoms: _261  and  _264
REMARK  107  A    between atoms: _264  and  _265
REMARK  108  A    between atoms: _268  and  _270
REMARK  109  A    between atoms: _270  and  _271
REMARK  110  A    between atoms: _273  and  _275
REMARK  111  A    between atoms: _275  and  _276
REMARK  112  A    between atoms: _275  and  _278
REMARK  113  A    between atoms: _278  and  _279
REMARK  114  A    between atoms: _284  and  _285
REMARK  115  A    between atoms: _287  and  _289
REMARK  116  A    between atoms: _289  and  _290
REMARK  117  A    between atoms: _289  and  _292
REMARK  118  A    between atoms: _292  and  _293
REMARK  119  A    between atoms: _293  and  _294
REMARK  120  A    between atoms: _294  and  _295
REMARK  121  A    between atoms: _304  and  _306
REMARK  122  A    between atoms: _306  and  _307
REMARK  123  A    between atoms: _306  and  _309
REMARK  124  A    between atoms: _309  and  _310
REMARK  125  A    between atoms: _310  and  _311
REMARK  126  A    between atoms: _311  and  _312
REMARK  127  A    between atoms: _312  and  _313
REMARK  128  A    between atoms: _317  and  _319
REMARK  129  A    between atoms: _319  and  _320
REMARK  130  A    between atoms: _322  and  _324
REMARK  131  A    between atoms: _324  and  _325
REMARK  132  A    between atoms: _328  and  _330
REMARK  133  A    between atoms: _330  and  _331
REMARK  134  A    between atoms: _330  and  _333
REMARK  135  A    between atoms: _333  and  _334
REMARK  136  A    between atoms: _339  and  _341
REMARK  137  A    between atoms: _341  and  _342
REMARK  138  A    between atoms: _345  and  _347
REMARK  139  A    between atoms: _347  and  _348
REMARK  140  A    between atoms: _351  and  _352
REMARK  141  A    between atoms: _357  and  _359
REMARK  142  A    between atoms: _359  and  _360
REMARK  143  A    between atoms: _359  and  _362
REMARK  144  A    between atoms: _362  and  _363
REMARK  145  A    between atoms: _366  and  _368
REMARK  146  A    between atoms: _368  and  _369
REMARK  147  A    between atoms: _368  and  _371
REMARK  148  A    between atoms: _371  and  _372
REMARK  149  A    between atoms: _382  and  _384
REMARK  150  A    between atoms: _384  and  _385
REMARK  151  A    between atoms: _384  and  _387
REMARK  152  A    between atoms: _387  and  _388
REMARK  153  A    between atoms: _394  and  _395
REMARK  154  A    between atoms: _400  and  _402
REMARK  155  A    between atoms: _402  and  _403
REMARK  156  A    between atoms: _402  and  _405
REMARK  157  A    between atoms: _405  and  _406
REMARK  158  A    between atoms: _409  and  _411
REMARK  159  A    between atoms: _411  and  _412
REMARK  160  A    between atoms: _411  and  _414
REMARK  161  A    between atoms: _414  and  _415
REMARK  162  A    between atoms: _417  and  _419
REMARK  163  A    between atoms: _419  and  _420
REMARK  164  A    between atoms: _419  and  _422
REMARK  165  A    between atoms: _422  and  _423
REMARK  166  A    between atoms: _428  and  _430
REMARK  167  A    between atoms: _430  and  _431
REMARK  168  A    between atoms: _430  and  _433
REMARK  169  A    between atoms: _436  and  _438
REMARK  170  A    between atoms: _438  and  _439
REMARK  171  A    between atoms: _438  and  _441
REMARK  172  A    between atoms: _441  and  _442
REMARK  173  A    between atoms: _442  and  _443
REMARK  174  A    between atoms: _449  and  _450
REMARK  175  A    between atoms: _455  and  _457
REMARK  176  A    between atoms: _457  and  _458
REMARK  177  A    between atoms: _457  and  _460
REMARK  178  A    between atoms: _460  and  _461
REMARK  179  A    between atoms: _464  and  _466
REMARK  180  A    between atoms: _466  and  _467
REMARK  181  A    between atoms: _466  and  _469
REMARK  182  A    between atoms: _469  and  _470
REMARK  183  A    between atoms: _473  and  _475
REMARK  184  A    between atoms: _475  and  _476
REMARK  185  A    between atoms: _475  and  _478
REMARK  186  A    between atoms: _478  and  _479
REMARK  187  A    between atoms: _481  and  _483
REMARK  188  A    between atoms: _483  and  _484
REMARK  189  A    between atoms: _483  and  _486
REMARK  190  A    between atoms: _486  and  _487
REMARK  191  A    between atoms: _492  and  _493
REMARK  192  A    between atoms: _495  and  _497
REMARK  193  A    between atoms: _497  and  _498
REMARK  194  A    between atoms: _497  and  _500
REMARK  195  A    between atoms: _500  and  _501
REMARK  196  A    between atoms: _506  and  _508
REMARK  197  A    between atoms: _508  and  _509
REMARK  198  A    between atoms: _508  and  _511
REMARK  199  A    between atoms: _511  and  _512
REMARK  200  A    between atoms: _515  and  _517
REMARK  201  A    between atoms: _517  and  _518
REMARK  202  A    between atoms: _517  and  _520
REMARK  203  A    between atoms: _520  and  _521
REMARK  204  A    between atoms: _531  and  _533
REMARK  205  A    between atoms: _533  and  _534
REMARK  206  A    between atoms: _536  and  _538
REMARK  207  A    between atoms: _538  and  _539
REMARK  208  A    between atoms: _538  and  _541
REMARK  209  A    between atoms: _541  and  _542
REMARK  210  A    between atoms: _547  and  _548
REMARK  211  A    between atoms: _550  and  _552
REMARK  212  A    between atoms: _552  and  _553
REMARK  213  A    between atoms: _552  and  _555
REMARK  214  A    between atoms: _555  and  _556
REMARK  215  A    between atoms: _556  and  _557
REMARK  216  A    between atoms: _557  and  _558
REMARK  217  A    between atoms: _567  and  _569
REMARK  218  A    between atoms: _569  and  _570
REMARK  219  A    between atoms: _569  and  _572
REMARK  220  A    between atoms: _572  and  _573
REMARK  221  A    between atoms: _573  and  _574
REMARK  222  A    between atoms: _574  and  _575
REMARK  223  A    between atoms: _575  and  _576
REMARK  224  A    between atoms: _580  and  _582
REMARK  225  A    between atoms: _582  and  _583
REMARK  226  A    between atoms: _585  and  _587
REMARK  227  A    between atoms: _587  and  _588
REMARK  228  A    between atoms: _591  and  _593
REMARK  229  A    between atoms: _593  and  _594
REMARK  230  A    between atoms: _593  and  _596
REMARK  231  A    between atoms: _596  and  _597
REMARK  232  A    between atoms: _602  and  _604
REMARK  233  A    between atoms: _604  and  _605
REMARK  234  A    between atoms: _608  and  _610
REMARK  235  A    between atoms: _610  and  _611
REMARK  236  A    between atoms: _614  and  _615
REMARK  237  A    between atoms: _620  and  _622
REMARK  238  A    between atoms: _622  and  _623
REMARK  239  A    between atoms: _622  and  _625
REMARK  240  A    between atoms: _625  and  _626
REMARK  241  A    between atoms: _629  and  _631
REMARK  242  A    between atoms: _631  and  _632
REMARK  243  A    between atoms: _631  and  _634
REMARK  244  A    between atoms: _634  and  _635
REMARK  245  A    between atoms: _645  and  _647
REMARK  246  A    between atoms: _647  and  _648
REMARK  247  A    between atoms: _647  and  _650
REMARK  248  A    between atoms: _650  and  _651
REMARK  249  A    between atoms: _657  and  _658
REMARK  250  A    between atoms: _663  and  _665
REMARK  251  A    between atoms: _665  and  _666
REMARK  252  A    between atoms: _665  and  _668
REMARK  253  A    between atoms: _668  and  _669
REMARK  254  A    between atoms: _672  and  _674
REMARK  255  A    between atoms: _674  and  _675
REMARK  256  A    between atoms: _674  and  _677
REMARK  257  A    between atoms: _677  and  _678
REMARK  258  A    between atoms: _678  and  _679
REMARK  259  A    between atoms: _682  and  _684
REMARK  260  A    between atoms: _684  and  _685
REMARK  261  A    between atoms: _684  and  _687
REMARK  262  A    between atoms: _687  and  _688
REMARK  263  A    between atoms: _688  and  _689
REMARK  264  A    between atoms: _689  and  _690
REMARK  265  A    between atoms: _690  and  _691
REMARK  266  A    between atoms: _695  and  _697
REMARK  267  A    between atoms: _697  and  _698
REMARK  268  A    between atoms: _700  and  _702
REMARK  269  A    between atoms: _702  and  _703
REMARK  270  A    between atoms: _702  and  _705
REMARK  271  A    between atoms: _705  and  _706
REMARK  272  A    between atoms: _711  and  _713
REMARK  273  A    between atoms: _713  and  _714
REMARK  274  A    between atoms: _713  and  _716
REMARK  275  A    between atoms: _716  and  _717
REMARK  276  A    between atoms: _717  and  _718
REMARK  277  A    between atoms: _718  and  _719
REMARK  278  A    between atoms: _728  and  _730
REMARK  279  A    between atoms: _730  and  _731
REMARK  280  A    between atoms: _730  and  _733
REMARK  281  A    between atoms: _733  and  _734
REMARK  282  A    between atoms: _737  and  _739
REMARK  283  A    between atoms: _739  and  _740
REMARK  284  A    between atoms: _739  and  _742
REMARK  285  A    between atoms: _745  and  _747
REMARK  286  A    between atoms: _747  and  _748
REMARK  287  A    between atoms: _747  and  _750
REMARK  288  A    between atoms: _750  and  _751
REMARK  289  A    between atoms: _751  and  _752
REMARK  290  A    between atoms: _758  and  _759
REMARK  291  A    between atoms: _764  and  _766
REMARK  292  A    between atoms: _766  and  _767
REMARK  293  A    between atoms: _766  and  _769
REMARK  294  A    between atoms: _769  and  _770
REMARK  295  A    between atoms: _773  and  _775
REMARK  296  A    between atoms: _775  and  _776
REMARK  297  A    between atoms: _775  and  _778
REMARK  298  A    between atoms: _778  and  _779
REMARK  299  A    between atoms: _782  and  _784
REMARK  300  A    between atoms: _784  and  _785
REMARK  301  A    between atoms: _784  and  _787
REMARK  302  A    between atoms: _787  and  _788
REMARK  303  A    between atoms: _790  and  _792
REMARK  304  A    between atoms: _792  and  _793
REMARK  305  A    between atoms: _792  and  _795
REMARK  306  A    between atoms: _795  and  _796
REMARK  307  A    between atoms: _796  and  _797
REMARK  308  A    between atoms: _797  and  _798
REMARK  309  A    between atoms: _807  and  _809
REMARK  310  A    between atoms: _809  and  _810
REMARK                            x       y       z     vdW  Elec       q    Type
REMARK                         _______ _______ _______ _____ _____    ______ ____
ROOT
ATOM      1  O   HOH     1     -20.111 -34.992 -15.040  0.00  0.00    +0.000 OA
ENDROOT
TORSDOF 0
REMARK  Name = ../refined-set-2016/3rt4/3rt4_pocket.pdb
REMARK  310 active torsions:
REMARK  status: ('A' for Active; 'I' for Inactive)
REMARK    1  A    between atoms: _1  and  _3
REMARK    2  A    between atoms: _3  and  _4
REMARK    3  A    between atoms: _3  and  _6
REMARK    4  A    between atoms: _6  and  _7
REMARK    5  A    between atoms: _7  and  _8
REMARK    6  A    between atoms: _8  and  _9
REMARK    7  A    between atoms: _18  and  _20
REMARK    8  A    between atoms: _20  and  _21
REMARK    9  A    between atoms: _20  and  _23
REMARK   10  A    between atoms: _26  and  _28
REMARK   11  A    between atoms: _28  and  _29
REMARK   12  A    between atoms: _28  and  _31
REMARK   13  A    between atoms: _31  and  _32
REMARK   14  A    between atoms: _32  and  _33
REMARK   15  A    between atoms: _33  and  _34
REMARK   16  A    between atoms: _43  and  _45
REMARK   17  A    between atoms: _45  and  _46
REMARK   18  A    between atoms: _45  and  _48
REMARK   19  A    between atoms: _48  and  _49
REMARK   20  A    between atoms: _51  and  _53
REMARK   21  A    between atoms: _53  and  _54
REMARK   22  A    between atoms: _53  and  _56
REMARK   23  A    between atoms: _56  and  _57
REMARK   24  A    between atoms: _62  and  _64
REMARK   25  A    between atoms: _64  and  _65
REMARK   26  A    between atoms: _64  and  _67
REMARK   27  A    between atoms: _67  and  _68
REMARK   28  A    between atoms: _73  and  _74
REMARK   29  A    between atoms: _76  and  _78
REMARK   30  A    between atoms: _78  and  _79
REMARK   31  A    between atoms: _78  and  _81
REMARK   32  A    between atoms: _81  and  _82
REMARK   33  A    between atoms: _82  and  _83
REMARK   34  A    between atoms: _86  and  _88
REMARK   35  A    between atoms: _88  and  _89
REMARK   36  A    between atoms: _88  and  _91
REMARK   37  A    between atoms: _91  and  _92
REMARK   38  A    between atoms: _92  and  _93
REMARK   39  A    between atoms: _93  and  _94
REMARK   40  A    between atoms: _94  and  _95
REMARK   41  A    between atoms: _99  and  _101
REMARK   42  A    between atoms: _101  and  _102
REMARK   43  A    between atoms: _101  and  _104
REMARK   44  A    between atoms: _104  and  _105
REMARK   45  A    between atoms: _110  and  _111
REMARK   46  A    between atoms: _113  and  _115
REMARK   47  A    between atoms: _115  and  _116
REMARK   48  A    between atoms: _115  and  _118
REMARK   49  A    between atoms: _118  and  _119
REMARK   50  A    between atoms: _119  and  _120
REMARK   51  A    between atoms: _120  and  _121
REMARK   52  A    between atoms: _130  and  _132
REMARK   53  A    between atoms: _132  and  _133
REMARK   54  A    between atoms: _136  and  _138
REMARK   55  A    between atoms: _138  and  _139
REMARK   56  A    between atoms: _138  and  _141
REMARK   57  A    between atoms: _141  and  _142
REMARK   58  A    between atoms: _142  and  _258
REMARK   59  A    between atoms: _143  and  _145
REMARK   60  A    between atoms: _145  and  _146
REMARK   61  A    between atoms: _145  and  _148
REMARK   62  A    between atoms: _148  and  _149
REMARK   63  A    between atoms: _149  and  _150
REMARK   64  A    between atoms: _153  and  _155
REMARK   65  A    between atoms: _155  and  _156
REMARK   66  A    between atoms: _155  and  _158
REMARK   67  A    between atoms: _158  and  _159
REMARK   68  A    between atoms: _161  and  _163
REMARK   69  A    between atoms: _163  and  _164
REMARK   70  A    between atoms: _163  and  _166
REMARK   71  A    between atoms: _166  and  _167
REMARK   72  A    between atoms: _172  and  _173
REMARK   73  A    between atoms: _175  and  _177
REMARK   74  A    between atoms: _177  and  _178
REMARK   75  A    between atoms: _177  and  _180
REMARK   76  A    between atoms: _180  and  _181
REMARK   77  A    between atoms: _186  and  _188
REMARK   78  A    between atoms: _188  and  _189
REMARK   79  A    between atoms: _188  and  _191
REMARK   80  A    between atoms: _194  and  _196
REMARK   81  A    between atoms: _196  and  _197
REMARK   82  A    between atoms: _196  and  _199
REMARK   83  A    between atoms: _199  and  _200
REMARK   84  A    between atoms: _200  and  _201
REMARK   85  A    between atoms: _201  and  _202
REMARK   86  A    between atoms: _211  and  _213
REMARK   87  A    between atoms: _213  and  _214
REMARK   88  A    between atoms: _213  and  _216
REMARK   89  A    between atoms: _216  and  _217
REMARK   90  A    between atoms: _222  and  _224
REMARK   91  A    between atoms: _224  and  _225
REMARK   92  A    between atoms: _224  and  _227
REMARK   93  A    between atoms: _227  and  _228
REMARK   94  A    between atoms: _231  and  _233
REMARK   95  A    between atoms: _233  and  _234
REMARK   96  A    between atoms: _236  and  _238
REMARK   97  A    between atoms: _238  and  _239
REMARK   98  A    between atoms: _238  and  _241
REMARK   99  A    between atoms: _241  and  _242
REMARK  100  A    between atoms: _252  and  _254
REMARK  101  A    between atoms: _254  and  _255
REMARK  102  A    between atoms: _254  and  _257
REMARK  103  A    between atoms: _257  and  _258
REMARK  104  A    between atoms: _259  and  _261
REMARK  105  A    between atoms: _261  and  _262
REMARK  106  A    between atoms: _261  and  _264
REMARK  107  A    between atoms: _264  and  _265
REMARK  108  A    between atoms: _268  and  _270
REMARK  109  A    between atoms: _270  and  _271
REMARK  110  A    between atoms: _273  and  _275
REMARK  111  A    between atoms: _275  and  _276
REMARK  112  A    between atoms: _275  and  _278
REMARK  113  A    between atoms: _278  and  _279
REMARK  114  A    between atoms: _284  and  _285
REMARK  115  A    between atoms: _287  and  _289
REMARK  116  A    between atoms: _289  and  _290
REMARK  117  A    between atoms: _289  and  _292
REMARK  118  A    between atoms: _292  and  _293
REMARK  119  A    between atoms: _293  and  _294
REMARK  120  A    between atoms: _294  and  _295
REMARK  121  A    between atoms: _304  and  _306
REMARK  122  A    between atoms: _306  and  _307
REMARK  123  A    between atoms: _306  and  _309
REMARK  124  A    between atoms: _309  and  _310
REMARK  125  A    between atoms: _310  and  _311
REMARK  126  A    between atoms: _311  and  _312
REMARK  127  A    between atoms: _312  and  _313
REMARK  128  A    between atoms: _317  and  _319
REMARK  129  A    between atoms: _319  and  _320
REMARK  130  A    between atoms: _322  and  _324
REMARK  131  A    between atoms: _324  and  _325
REMARK  132  A    between atoms: _328  and  _330
REMARK  133  A    between atoms: _330  and  _331
REMARK  134  A    between atoms: _330  and  _333
REMARK  135  A    between atoms: _333  and  _334
REMARK  136  A    between atoms: _339  and  _341
REMARK  137  A    between atoms: _341  and  _342
REMARK  138  A    between atoms: _345  and  _347
REMARK  139  A    between atoms: _347  and  _348
REMARK  140  A    between atoms: _351  and  _352
REMARK  141  A    between atoms: _357  and  _359
REMARK  142  A    between atoms: _359  and  _360
REMARK  143  A    between atoms: _359  and  _362
REMARK  144  A    between atoms: _362  and  _363
REMARK  145  A    between atoms: _366  and  _368
REMARK  146  A    between atoms: _368  and  _369
REMARK  147  A    between atoms: _368  and  _371
REMARK  148  A    between atoms: _371  and  _372
REMARK  149  A    between atoms: _382  and  _384
REMARK  150  A    between atoms: _384  and  _385
REMARK  151  A    between atoms: _384  and  _387
REMARK  152  A    between atoms: _387  and  _388
REMARK  153  A    between atoms: _394  and  _395
REMARK  154  A    between atoms: _400  and  _402
REMARK  155  A    between atoms: _402  and  _403
REMARK  156  A    between atoms: _402  and  _405
REMARK  157  A    between atoms: _405  and  _406
REMARK  158  A    between atoms: _409  and  _411
REMARK  159  A    between atoms: _411  and  _412
REMARK  160  A    between atoms: _411  and  _414
REMARK  161  A    between atoms: _414  and  _415
REMARK  162  A    between atoms: _417  and  _419
REMARK  163  A    between atoms: _419  and  _420
REMARK  164  A    between atoms: _419  and  _422
REMARK  165  A    between atoms: _422  and  _423
REMARK  166  A    between atoms: _428  and  _430
REMARK  167  A    between atoms: _430  and  _431
REMARK  168  A    between atoms: _430  and  _433
REMARK  169  A    between atoms: _436  and  _438
REMARK  170  A    between atoms: _438  and  _439
REMARK  171  A    between atoms: _438  and  _441
REMARK  172  A    between atoms: _441  and  _442
REMARK  173  A    between atoms: _442  and  _443
REMARK  174  A    between atoms: _449  and  _450
REMARK  175  A    between atoms: _455  and  _457
REMARK  176  A    between atoms: _457  and  _458
REMARK  177  A    between atoms: _457  and  _460
REMARK  178  A    between atoms: _460  and  _461
REMARK  179  A    between atoms: _464  and  _466
REMARK  180  A    between atoms: _466  and  _467
REMARK  181  A    between atoms: _466  and  _469
REMARK  182  A    between atoms: _469  and  _470
REMARK  183  A    between atoms: _473  and  _475
REMARK  184  A    between atoms: _475  and  _476
REMARK  185  A    between atoms: _475  and  _478
REMARK  186  A    between atoms: _478  and  _479
REMARK  187  A    between atoms: _481  and  _483
REMARK  188  A    between atoms: _483  and  _484
REMARK  189  A    between atoms: _483  and  _486
REMARK  190  A    between atoms: _486  and  _487
REMARK  191  A    between atoms: _492  and  _493
REMARK  192  A    between atoms: _495  and  _497
REMARK  193  A    between atoms: _497  and  _498
REMARK  194  A    between atoms: _497  and  _500
REMARK  195  A    between atoms: _500  and  _501
REMARK  196  A    between atoms: _506  and  _508
REMARK  197  A    between atoms: _508  and  _509
REMARK  198  A    between atoms: _508  and  _511
REMARK  199  A    between atoms: _511  and  _512
REMARK  200  A    between atoms: _515  and  _517
REMARK  201  A    between atoms: _517  and  _518
REMARK  202  A    between atoms: _517  and  _520
REMARK  203  A    between atoms: _520  and  _521
REMARK  204  A    between atoms: _531  and  _533
REMARK  205  A    between atoms: _533  and  _534
REMARK  206  A    between atoms: _536  and  _538
REMARK  207  A    between atoms: _538  and  _539
REMARK  208  A    between atoms: _538  and  _541
REMARK  209  A    between atoms: _541  and  _542
REMARK  210  A    between atoms: _547  and  _548
REMARK  211  A    between atoms: _550  and  _552
REMARK  212  A    between atoms: _552  and  _553
REMARK  213  A    between atoms: _552  and  _555
REMARK  214  A    between atoms: _555  and  _556
REMARK  215  A    between atoms: _556  and  _557
REMARK  216  A    between atoms: _557  and  _558
REMARK  217  A    between atoms: _567  and  _569
REMARK  218  A    between atoms: _569  and  _570
REMARK  219  A    between atoms: _569  and  _572
REMARK  220  A    between atoms: _572  and  _573
REMARK  221  A    between atoms: _573  and  _574
REMARK  222  A    between atoms: _574  and  _575
REMARK  223  A    between atoms: _575  and  _576
REMARK  224  A    between atoms: _580  and  _582
REMARK  225  A    between atoms: _582  and  _583
REMARK  226  A    between atoms: _585  and  _587
REMARK  227  A    between atoms: _587  and  _588
REMARK  228  A    between atoms: _591  and  _593
REMARK  229  A    between atoms: _593  and  _594
REMARK  230  A    between atoms: _593  and  _596
REMARK  231  A    between atoms: _596  and  _597
REMARK  232  A    between atoms: _602  and  _604
REMARK  233  A    between atoms: _604  and  _605
REMARK  234  A    between atoms: _608  and  _610
REMARK  235  A    between atoms: _610  and  _611
REMARK  236  A    between atoms: _614  and  _615
REMARK  237  A    between atoms: _620  and  _622
REMARK  238  A    between atoms: _622  and  _623
REMARK  239  A    between atoms: _622  and  _625
REMARK  240  A    between atoms: _625  and  _626
REMARK  241  A    between atoms: _629  and  _631
REMARK  242  A    between atoms: _631  and  _632
REMARK  243  A    between atoms: _631  and  _634
REMARK  244  A    between atoms: _634  and  _635
REMARK  245  A    between atoms: _645  and  _647
REMARK  246  A    between atoms: _647  and  _648
REMARK  247  A    between atoms: _647  and  _650
REMARK  248  A    between atoms: _650  and  _651
REMARK  249  A    between atoms: _657  and  _658
REMARK  250  A    between atoms: _663  and  _665
REMARK  251  A    between atoms: _665  and  _666
REMARK  252  A    between atoms: _665  and  _668
REMARK  253  A    between atoms: _668  and  _669
REMARK  254  A    between atoms: _672  and  _674
REMARK  255  A    between atoms: _674  and  _675
REMARK  256  A    between atoms: _674  and  _677
REMARK  257  A    between atoms: _677  and  _678
REMARK  258  A    between atoms: _678  and  _679
REMARK  259  A    between atoms: _682  and  _684
REMARK  260  A    between atoms: _684  and  _685
REMARK  261  A    between atoms: _684  and  _687
REMARK  262  A    between atoms: _687  and  _688
REMARK  263  A    between atoms: _688  and  _689
REMARK  264  A    between atoms: _689  and  _690
REMARK  265  A    between atoms: _690  and  _691
REMARK  266  A    between atoms: _695  and  _697
REMARK  267  A    between atoms: _697  and  _698
REMARK  268  A    between atoms: _700  and  _702
REMARK  269  A    between atoms: _702  and  _703
REMARK  270  A    between atoms: _702  and  _705
REMARK  271  A    between atoms: _705  and  _706
REMARK  272  A    between atoms: _711  and  _713
REMARK  273  A    between atoms: _713  and  _714
REMARK  274  A    between atoms: _713  and  _716
REMARK  275  A    between atoms: _716  and  _717
REMARK  276  A    between atoms: _717  and  _718
REMARK  277  A    between atoms: _718  and  _719
REMARK  278  A    between atoms: _728  and  _730
REMARK  279  A    between atoms: _730  and  _731
REMARK  280  A    between atoms: _730  and  _733
REMARK  281  A    between atoms: _733  and  _734
REMARK  282  A    between atoms: _737  and  _739
REMARK  283  A    between atoms: _739  and  _740
REMARK  284  A    between atoms: _739  and  _742
REMARK  285  A    between atoms: _745  and  _747
REMARK  286  A    between atoms: _747  and  _748
REMARK  287  A    between atoms: _747  and  _750
REMARK  288  A    between atoms: _750  and  _751
REMARK  289  A    between atoms: _751  and  _752
REMARK  290  A    between atoms: _758  and  _759
REMARK  291  A    between atoms: _764  and  _766
REMARK  292  A    between atoms: _766  and  _767
REMARK  293  A    between atoms: _766  and  _769
REMARK  294  A    between atoms: _769  and  _770
REMARK  295  A    between atoms: _773  and  _775
REMARK  296  A    between atoms: _775  and  _776
REMARK  297  A    between atoms: _775  and  _778
REMARK  298  A    between atoms: _778  and  _779
REMARK  299  A    between atoms: _782  and  _784
REMARK  300  A    between atoms: _784  and  _785
REMARK  301  A    between atoms: _784  and  _787
REMARK  302  A    between atoms: _787  and  _788
REMARK  303  A    between atoms: _790  and  _792
REMARK  304  A    between atoms: _792  and  _793
REMARK  305  A    between atoms: _792  and  _795
REMARK  306  A    between atoms: _795  and  _796
REMARK  307  A    between atoms: _796  and  _797
REMARK  308  A    between atoms: _797  and  _798
REMARK  309  A    between atoms: _807  and  _809
REMARK  310  A    between atoms: _809  and  _810
REMARK                            x       y       z     vdW  Elec       q    Type
REMARK                         _______ _______ _______ _____ _____    ______ ____
ROOT
ATOM      1  O   HOH     1     -30.702 -31.205 -11.216  0.00  0.00    +0.000 OA
ENDROOT
TORSDOF 0
REMARK  Name = ../refined-set-2016/3rt4/3rt4_pocket.pdb
REMARK  310 active torsions:
REMARK  status: ('A' for Active; 'I' for Inactive)
REMARK    1  A    between atoms: _1  and  _3
REMARK    2  A    between atoms: _3  and  _4
REMARK    3  A    between atoms: _3  and  _6
REMARK    4  A    between atoms: _6  and  _7
REMARK    5  A    between atoms: _7  and  _8
REMARK    6  A    between atoms: _8  and  _9
REMARK    7  A    between atoms: _18  and  _20
REMARK    8  A    between atoms: _20  and  _21
REMARK    9  A    between atoms: _20  and  _23
REMARK   10  A    between atoms: _26  and  _28
REMARK   11  A    between atoms: _28  and  _29
REMARK   12  A    between atoms: _28  and  _31
REMARK   13  A    between atoms: _31  and  _32
REMARK   14  A    between atoms: _32  and  _33
REMARK   15  A    between atoms: _33  and  _34
REMARK   16  A    between atoms: _43  and  _45
REMARK   17  A    between atoms: _45  and  _46
REMARK   18  A    between atoms: _45  and  _48
REMARK   19  A    between atoms: _48  and  _49
REMARK   20  A    between atoms: _51  and  _53
REMARK   21  A    between atoms: _53  and  _54
REMARK   22  A    between atoms: _53  and  _56
REMARK   23  A    between atoms: _56  and  _57
REMARK   24  A    between atoms: _62  and  _64
REMARK   25  A    between atoms: _64  and  _65
REMARK   26  A    between atoms: _64  and  _67
REMARK   27  A    between atoms: _67  and  _68
REMARK   28  A    between atoms: _73  and  _74
REMARK   29  A    between atoms: _76  and  _78
REMARK   30  A    between atoms: _78  and  _79
REMARK   31  A    between atoms: _78  and  _81
REMARK   32  A    between atoms: _81  and  _82
REMARK   33  A    between atoms: _82  and  _83
REMARK   34  A    between atoms: _86  and  _88
REMARK   35  A    between atoms: _88  and  _89
REMARK   36  A    between atoms: _88  and  _91
REMARK   37  A    between atoms: _91  and  _92
REMARK   38  A    between atoms: _92  and  _93
REMARK   39  A    between atoms: _93  and  _94
REMARK   40  A    between atoms: _94  and  _95
REMARK   41  A    between atoms: _99  and  _101
REMARK   42  A    between atoms: _101  and  _102
REMARK   43  A    between atoms: _101  and  _104
REMARK   44  A    between atoms: _104  and  _105
REMARK   45  A    between atoms: _110  and  _111
REMARK   46  A    between atoms: _113  and  _115
REMARK   47  A    between atoms: _115  and  _116
REMARK   48  A    between atoms: _115  and  _118
REMARK   49  A    between atoms: _118  and  _119
REMARK   50  A    between atoms: _119  and  _120
REMARK   51  A    between atoms: _120  and  _121
REMARK   52  A    between atoms: _130  and  _132
REMARK   53  A    between atoms: _132  and  _133
REMARK   54  A    between atoms: _136  and  _138
REMARK   55  A    between atoms: _138  and  _139
REMARK   56  A    between atoms: _138  and  _141
REMARK   57  A    between atoms: _141  and  _142
REMARK   58  A    between atoms: _142  and  _258
REMARK   59  A    between atoms: _143  and  _145
REMARK   60  A    between atoms: _145  and  _146
REMARK   61  A    between atoms: _145  and  _148
REMARK   62  A    between atoms: _148  and  _149
REMARK   63  A    between atoms: _149  and  _150
REMARK   64  A    between atoms: _153  and  _155
REMARK   65  A    between atoms: _155  and  _156
REMARK   66  A    between atoms: _155  and  _158
REMARK   67  A    between atoms: _158  and  _159
REMARK   68  A    between atoms: _161  and  _163
REMARK   69  A    between atoms: _163  and  _164
REMARK   70  A    between atoms: _163  and  _166
REMARK   71  A    between atoms: _166  and  _167
REMARK   72  A    between atoms: _172  and  _173
REMARK   73  A    between atoms: _175  and  _177
REMARK   74  A    between atoms: _177  and  _178
REMARK   75  A    between atoms: _177  and  _180
REMARK   76  A    between atoms: _180  and  _181
REMARK   77  A    between atoms: _186  and  _188
REMARK   78  A    between atoms: _188  and  _189
REMARK   79  A    between atoms: _188  and  _191
REMARK   80  A    between atoms: _194  and  _196
REMARK   81  A    between atoms: _196  and  _197
REMARK   82  A    between atoms: _196  and  _199
REMARK   83  A    between atoms: _199  and  _200
REMARK   84  A    between atoms: _200  and  _201
REMARK   85  A    between atoms: _201  and  _202
REMARK   86  A    between atoms: _211  and  _213
REMARK   87  A    between atoms: _213  and  _214
REMARK   88  A    between atoms: _213  and  _216
REMARK   89  A    between atoms: _216  and  _217
REMARK   90  A    between atoms: _222  and  _224
REMARK   91  A    between atoms: _224  and  _225
REMARK   92  A    between atoms: _224  and  _227
REMARK   93  A    between atoms: _227  and  _228
REMARK   94  A    between atoms: _231  and  _233
REMARK   95  A    between atoms: _233  and  _234
REMARK   96  A    between atoms: _236  and  _238
REMARK   97  A    between atoms: _238  and  _239
REMARK   98  A    between atoms: _238  and  _241
REMARK   99  A    between atoms: _241  and  _242
REMARK  100  A    between atoms: _252  and  _254
REMARK  101  A    between atoms: _254  and  _255
REMARK  102  A    between atoms: _254  and  _257
REMARK  103  A    between atoms: _257  and  _258
REMARK  104  A    between atoms: _259  and  _261
REMARK  105  A    between atoms: _261  and  _262
REMARK  106  A    between atoms: _261  and  _264
REMARK  107  A    between atoms: _264  and  _265
REMARK  108  A    between atoms: _268  and  _270
REMARK  109  A    between atoms: _270  and  _271
REMARK  110  A    between atoms: _273  and  _275
REMARK  111  A    between atoms: _275  and  _276
REMARK  112  A    between atoms: _275  and  _278
REMARK  113  A    between atoms: _278  and  _279
REMARK  114  A    between atoms: _284  and  _285
REMARK  115  A    between atoms: _287  and  _289
REMARK  116  A    between atoms: _289  and  _290
REMARK  117  A    between atoms: _289  and  _292
REMARK  118  A    between atoms: _292  and  _293
REMARK  119  A    between atoms: _293  and  _294
REMARK  120  A    between atoms: _294  and  _295
REMARK  121  A    between atoms: _304  and  _306
REMARK  122  A    between atoms: _306  and  _307
REMARK  123  A    between atoms: _306  and  _309
REMARK  124  A    between atoms: _309  and  _310
REMARK  125  A    between atoms: _310  and  _311
REMARK  126  A    between atoms: _311  and  _312
REMARK  127  A    between atoms: _312  and  _313
REMARK  128  A    between atoms: _317  and  _319
REMARK  129  A    between atoms: _319  and  _320
REMARK  130  A    between atoms: _322  and  _324
REMARK  131  A    between atoms: _324  and  _325
REMARK  132  A    between atoms: _328  and  _330
REMARK  133  A    between atoms: _330  and  _331
REMARK  134  A    between atoms: _330  and  _333
REMARK  135  A    between atoms: _333  and  _334
REMARK  136  A    between atoms: _339  and  _341
REMARK  137  A    between atoms: _341  and  _342
REMARK  138  A    between atoms: _345  and  _347
REMARK  139  A    between atoms: _347  and  _348
REMARK  140  A    between atoms: _351  and  _352
REMARK  141  A    between atoms: _357  and  _359
REMARK  142  A    between atoms: _359  and  _360
REMARK  143  A    between atoms: _359  and  _362
REMARK  144  A    between atoms: _362  and  _363
REMARK  145  A    between atoms: _366  and  _368
REMARK  146  A    between atoms: _368  and  _369
REMARK  147  A    between atoms: _368  and  _371
REMARK  148  A    between atoms: _371  and  _372
REMARK  149  A    between atoms: _382  and  _384
REMARK  150  A    between atoms: _384  and  _385
REMARK  151  A    between atoms: _384  and  _387
REMARK  152  A    between atoms: _387  and  _388
REMARK  153  A    between atoms: _394  and  _395
REMARK  154  A    between atoms: _400  and  _402
REMARK  155  A    between atoms: _402  and  _403
REMARK  156  A    between atoms: _402  and  _405
REMARK  157  A    between atoms: _405  and  _406
REMARK  158  A    between atoms: _409  and  _411
REMARK  159  A    between atoms: _411  and  _412
REMARK  160  A    between atoms: _411  and  _414
REMARK  161  A    between atoms: _414  and  _415
REMARK  162  A    between atoms: _417  and  _419
REMARK  163  A    between atoms: _419  and  _420
REMARK  164  A    between atoms: _419  and  _422
REMARK  165  A    between atoms: _422  and  _423
REMARK  166  A    between atoms: _428  and  _430
REMARK  167  A    between atoms: _430  and  _431
REMARK  168  A    between atoms: _430  and  _433
REMARK  169  A    between atoms: _436  and  _438
REMARK  170  A    between atoms: _438  and  _439
REMARK  171  A    between atoms: _438  and  _441
REMARK  172  A    between atoms: _441  and  _442
REMARK  173  A    between atoms: _442  and  _443
REMARK  174  A    between atoms: _449  and  _450
REMARK  175  A    between atoms: _455  and  _457
REMARK  176  A    between atoms: _457  and  _458
REMARK  177  A    between atoms: _457  and  _460
REMARK  178  A    between atoms: _460  and  _461
REMARK  179  A    between atoms: _464  and  _466
REMARK  180  A    between atoms: _466  and  _467
REMARK  181  A    between atoms: _466  and  _469
REMARK  182  A    between atoms: _469  and  _470
REMARK  183  A    between atoms: _473  and  _475
REMARK  184  A    between atoms: _475  and  _476
REMARK  185  A    between atoms: _475  and  _478
REMARK  186  A    between atoms: _478  and  _479
REMARK  187  A    between atoms: _481  and  _483
REMARK  188  A    between atoms: _483  and  _484
REMARK  189  A    between atoms: _483  and  _486
REMARK  190  A    between atoms: _486  and  _487
REMARK  191  A    between atoms: _492  and  _493
REMARK  192  A    between atoms: _495  and  _497
REMARK  193  A    between atoms: _497  and  _498
REMARK  194  A    between atoms: _497  and  _500
REMARK  195  A    between atoms: _500  and  _501
REMARK  196  A    between atoms: _506  and  _508
REMARK  197  A    between atoms: _508  and  _509
REMARK  198  A    between atoms: _508  and  _511
REMARK  199  A    between atoms: _511  and  _512
REMARK  200  A    between atoms: _515  and  _517
REMARK  201  A    between atoms: _517  and  _518
REMARK  202  A    between atoms: _517  and  _520
REMARK  203  A    between atoms: _520  and  _521
REMARK  204  A    between atoms: _531  and  _533
REMARK  205  A    between atoms: _533  and  _534
REMARK  206  A    between atoms: _536  and  _538
REMARK  207  A    between atoms: _538  and  _539
REMARK  208  A    between atoms: _538  and  _541
REMARK  209  A    between atoms: _541  and  _542
REMARK  210  A    between atoms: _547  and  _548
REMARK  211  A    between atoms: _550  and  _552
REMARK  212  A    between atoms: _552  and  _553
REMARK  213  A    between atoms: _552  and  _555
REMARK  214  A    between atoms: _555  and  _556
REMARK  215  A    between atoms: _556  and  _557
REMARK  216  A    between atoms: _557  and  _558
REMARK  217  A    between atoms: _567  and  _569
REMARK  218  A    between atoms: _569  and  _570
REMARK  219  A    between atoms: _569  and  _572
REMARK  220  A    between atoms: _572  and  _573
REMARK  221  A    between atoms: _573  and  _574
REMARK  222  A    between atoms: _574  and  _575
REMARK  223  A    between atoms: _575  and  _576
REMARK  224  A    between atoms: _580  and  _582
REMARK  225  A    between atoms: _582  and  _583
REMARK  226  A    between atoms: _585  and  _587
REMARK  227  A    between atoms: _587  and  _588
REMARK  228  A    between atoms: _591  and  _593
REMARK  229  A    between atoms: _593  and  _594
REMARK  230  A    between atoms: _593  and  _596
REMARK  231  A    between atoms: _596  and  _597
REMARK  232  A    between atoms: _602  and  _604
REMARK  233  A    between atoms: _604  and  _605
REMARK  234  A    between atoms: _608  and  _610
REMARK  235  A    between atoms: _610  and  _611
REMARK  236  A    between atoms: _614  and  _615
REMARK  237  A    between atoms: _620  and  _622
REMARK  238  A    between atoms: _622  and  _623
REMARK  239  A    between atoms: _622  and  _625
REMARK  240  A    between atoms: _625  and  _626
REMARK  241  A    between atoms: _629  and  _631
REMARK  242  A    between atoms: _631  and  _632
REMARK  243  A    between atoms: _631  and  _634
REMARK  244  A    between atoms: _634  and  _635
REMARK  245  A    between atoms: _645  and  _647
REMARK  246  A    between atoms: _647  and  _648
REMARK  247  A    between atoms: _647  and  _650
REMARK  248  A    between atoms: _650  and  _651
REMARK  249  A    between atoms: _657  and  _658
REMARK  250  A    between atoms: _663  and  _665
REMARK  251  A    between atoms: _665  and  _666
REMARK  252  A    between atoms: _665  and  _668
REMARK  253  A    between atoms: _668  and  _669
REMARK  254  A    between atoms: _672  and  _674
REMARK  255  A    between atoms: _674  and  _675
REMARK  256  A    between atoms: _674  and  _677
REMARK  257  A    between atoms: _677  and  _678
REMARK  258  A    between atoms: _678  and  _679
REMARK  259  A    between atoms: _682  and  _684
REMARK  260  A    between atoms: _684  and  _685
REMARK  261  A    between atoms: _684  and  _687
REMARK  262  A    between atoms: _687  and  _688
REMARK  263  A    between atoms: _688  and  _689
REMARK  264  A    between atoms: _689  and  _690
REMARK  265  A    between atoms: _690  and  _691
REMARK  266  A    between atoms: _695  and  _697
REMARK  267  A    between atoms: _697  and  _698
REMARK  268  A    between atoms: _700  and  _702
REMARK  269  A    between atoms: _702  and  _703
REMARK  270  A    between atoms: _702  and  _705
REMARK  271  A    between atoms: _705  and  _706
REMARK  272  A    between atoms: _711  and  _713
REMARK  273  A    between atoms: _713  and  _714
REMARK  274  A    between atoms: _713  and  _716
REMARK  275  A    between atoms: _716  and  _717
REMARK  276  A    between atoms: _717  and  _718
REMARK  277  A    between atoms: _718  and  _719
REMARK  278  A    between atoms: _728  and  _730
REMARK  279  A    between atoms: _730  and  _731
REMARK  280  A    between atoms: _730  and  _733
REMARK  281  A    between atoms: _733  and  _734
REMARK  282  A    between atoms: _737  and  _739
REMARK  283  A    between atoms: _739  and  _740
REMARK  284  A    between atoms: _739  and  _742
REMARK  285  A    between atoms: _745  and  _747
REMARK  286  A    between atoms: _747  and  _748
REMARK  287  A    between atoms: _747  and  _750
REMARK  288  A    between atoms: _750  and  _751
REMARK  289  A    between atoms: _751  and  _752
REMARK  290  A    between atoms: _758  and  _759
REMARK  291  A    between atoms: _764  and  _766
REMARK  292  A    between atoms: _766  and  _767
REMARK  293  A    between atoms: _766  and  _769
REMARK  294  A    between atoms: _769  and  _770
REMARK  295  A    between atoms: _773  and  _775
REMARK  296  A    between atoms: _775  and  _776
REMARK  297  A    between atoms: _775  and  _778
REMARK  298  A    between atoms: _778  and  _779
REMARK  299  A    between atoms: _782  and  _784
REMARK  300  A    between atoms: _784  and  _785
REMARK  301  A    between atoms: _784  and  _787
REMARK  302  A    between atoms: _787  and  _788
REMARK  303  A    between atoms: _790  and  _792
REMARK  304  A    between atoms: _792  and  _793
REMARK  305  A    between atoms: _792  and  _795
REMARK  306  A    between atoms: _795  and  _796
REMARK  307  A    between atoms: _796  and  _797
REMARK  308  A    between atoms: _797  and  _798
REMARK  309  A    between atoms: _807  and  _809
REMARK  310  A    between atoms: _809  and  _810
REMARK                            x       y       z     vdW  Elec       q    Type
REMARK                         _______ _______ _______ _____ _____    ______ ____
ROOT
ATOM      1  O   HOH     1     -16.283 -33.456 -22.420  0.00  0.00    +0.000 OA
ENDROOT
TORSDOF 0
REMARK  Name = ../refined-set-2016/3rt4/3rt4_pocket.pdb
REMARK  310 active torsions:
REMARK  status: ('A' for Active; 'I' for Inactive)
REMARK    1  A    between atoms: _1  and  _3
REMARK    2  A    between atoms: _3  and  _4
REMARK    3  A    between atoms: _3  and  _6
REMARK    4  A    between atoms: _6  and  _7
REMARK    5  A    between atoms: _7  and  _8
REMARK    6  A    between atoms: _8  and  _9
REMARK    7  A    between atoms: _18  and  _20
REMARK    8  A    between atoms: _20  and  _21
REMARK    9  A    between atoms: _20  and  _23
REMARK   10  A    between atoms: _26  and  _28
REMARK   11  A    between atoms: _28  and  _29
REMARK   12  A    between atoms: _28  and  _31
REMARK   13  A    between atoms: _31  and  _32
REMARK   14  A    between atoms: _32  and  _33
REMARK   15  A    between atoms: _33  and  _34
REMARK   16  A    between atoms: _43  and  _45
REMARK   17  A    between atoms: _45  and  _46
REMARK   18  A    between atoms: _45  and  _48
REMARK   19  A    between atoms: _48  and  _49
REMARK   20  A    between atoms: _51  and  _53
REMARK   21  A    between atoms: _53  and  _54
REMARK   22  A    between atoms: _53  and  _56
REMARK   23  A    between atoms: _56  and  _57
REMARK   24  A    between atoms: _62  and  _64
REMARK   25  A    between atoms: _64  and  _65
REMARK   26  A    between atoms: _64  and  _67
REMARK   27  A    between atoms: _67  and  _68
REMARK   28  A    between atoms: _73  and  _74
REMARK   29  A    between atoms: _76  and  _78
REMARK   30  A    between atoms: _78  and  _79
REMARK   31  A    between atoms: _78  and  _81
REMARK   32  A    between atoms: _81  and  _82
REMARK   33  A    between atoms: _82  and  _83
REMARK   34  A    between atoms: _86  and  _88
REMARK   35  A    between atoms: _88  and  _89
REMARK   36  A    between atoms: _88  and  _91
REMARK   37  A    between atoms: _91  and  _92
REMARK   38  A    between atoms: _92  and  _93
REMARK   39  A    between atoms: _93  and  _94
REMARK   40  A    between atoms: _94  and  _95
REMARK   41  A    between atoms: _99  and  _101
REMARK   42  A    between atoms: _101  and  _102
REMARK   43  A    between atoms: _101  and  _104
REMARK   44  A    between atoms: _104  and  _105
REMARK   45  A    between atoms: _110  and  _111
REMARK   46  A    between atoms: _113  and  _115
REMARK   47  A    between atoms: _115  and  _116
REMARK   48  A    between atoms: _115  and  _118
REMARK   49  A    between atoms: _118  and  _119
REMARK   50  A    between atoms: _119  and  _120
REMARK   51  A    between atoms: _120  and  _121
REMARK   52  A    between atoms: _130  and  _132
REMARK   53  A    between atoms: _132  and  _133
REMARK   54  A    between atoms: _136  and  _138
REMARK   55  A    between atoms: _138  and  _139
REMARK   56  A    between atoms: _138  and  _141
REMARK   57  A    between atoms: _141  and  _142
REMARK   58  A    between atoms: _142  and  _258
REMARK   59  A    between atoms: _143  and  _145
REMARK   60  A    between atoms: _145  and  _146
REMARK   61  A    between atoms: _145  and  _148
REMARK   62  A    between atoms: _148  and  _149
REMARK   63  A    between atoms: _149  and  _150
REMARK   64  A    between atoms: _153  and  _155
REMARK   65  A    between atoms: _155  and  _156
REMARK   66  A    between atoms: _155  and  _158
REMARK   67  A    between atoms: _158  and  _159
REMARK   68  A    between atoms: _161  and  _163
REMARK   69  A    between atoms: _163  and  _164
REMARK   70  A    between atoms: _163  and  _166
REMARK   71  A    between atoms: _166  and  _167
REMARK   72  A    between atoms: _172  and  _173
REMARK   73  A    between atoms: _175  and  _177
REMARK   74  A    between atoms: _177  and  _178
REMARK   75  A    between atoms: _177  and  _180
REMARK   76  A    between atoms: _180  and  _181
REMARK   77  A    between atoms: _186  and  _188
REMARK   78  A    between atoms: _188  and  _189
REMARK   79  A    between atoms: _188  and  _191
REMARK   80  A    between atoms: _194  and  _196
REMARK   81  A    between atoms: _196  and  _197
REMARK   82  A    between atoms: _196  and  _199
REMARK   83  A    between atoms: _199  and  _200
REMARK   84  A    between atoms: _200  and  _201
REMARK   85  A    between atoms: _201  and  _202
REMARK   86  A    between atoms: _211  and  _213
REMARK   87  A    between atoms: _213  and  _214
REMARK   88  A    between atoms: _213  and  _216
REMARK   89  A    between atoms: _216  and  _217
REMARK   90  A    between atoms: _222  and  _224
REMARK   91  A    between atoms: _224  and  _225
REMARK   92  A    between atoms: _224  and  _227
REMARK   93  A    between atoms: _227  and  _228
REMARK   94  A    between atoms: _231  and  _233
REMARK   95  A    between atoms: _233  and  _234
REMARK   96  A    between atoms: _236  and  _238
REMARK   97  A    between atoms: _238  and  _239
REMARK   98  A    between atoms: _238  and  _241
REMARK   99  A    between atoms: _241  and  _242
REMARK  100  A    between atoms: _252  and  _254
REMARK  101  A    between atoms: _254  and  _255
REMARK  102  A    between atoms: _254  and  _257
REMARK  103  A    between atoms: _257  and  _258
REMARK  104  A    between atoms: _259  and  _261
REMARK  105  A    between atoms: _261  and  _262
REMARK  106  A    between atoms: _261  and  _264
REMARK  107  A    between atoms: _264  and  _265
REMARK  108  A    between atoms: _268  and  _270
REMARK  109  A    between atoms: _270  and  _271
REMARK  110  A    between atoms: _273  and  _275
REMARK  111  A    between atoms: _275  and  _276
REMARK  112  A    between atoms: _275  and  _278
REMARK  113  A    between atoms: _278  and  _279
REMARK  114  A    between atoms: _284  and  _285
REMARK  115  A    between atoms: _287  and  _289
REMARK  116  A    between atoms: _289  and  _290
REMARK  117  A    between atoms: _289  and  _292
REMARK  118  A    between atoms: _292  and  _293
REMARK  119  A    between atoms: _293  and  _294
REMARK  120  A    between atoms: _294  and  _295
REMARK  121  A    between atoms: _304  and  _306
REMARK  122  A    between atoms: _306  and  _307
REMARK  123  A    between atoms: _306  and  _309
REMARK  124  A    between atoms: _309  and  _310
REMARK  125  A    between atoms: _310  and  _311
REMARK  126  A    between atoms: _311  and  _312
REMARK  127  A    between atoms: _312  and  _313
REMARK  128  A    between atoms: _317  and  _319
REMARK  129  A    between atoms: _319  and  _320
REMARK  130  A    between atoms: _322  and  _324
REMARK  131  A    between atoms: _324  and  _325
REMARK  132  A    between atoms: _328  and  _330
REMARK  133  A    between atoms: _330  and  _331
REMARK  134  A    between atoms: _330  and  _333
REMARK  135  A    between atoms: _333  and  _334
REMARK  136  A    between atoms: _339  and  _341
REMARK  137  A    between atoms: _341  and  _342
REMARK  138  A    between atoms: _345  and  _347
REMARK  139  A    between atoms: _347  and  _348
REMARK  140  A    between atoms: _351  and  _352
REMARK  141  A    between atoms: _357  and  _359
REMARK  142  A    between atoms: _359  and  _360
REMARK  143  A    between atoms: _359  and  _362
REMARK  144  A    between atoms: _362  and  _363
REMARK  145  A    between atoms: _366  and  _368
REMARK  146  A    between atoms: _368  and  _369
REMARK  147  A    between atoms: _368  and  _371
REMARK  148  A    between atoms: _371  and  _372
REMARK  149  A    between atoms: _382  and  _384
REMARK  150  A    between atoms: _384  and  _385
REMARK  151  A    between atoms: _384  and  _387
REMARK  152  A    between atoms: _387  and  _388
REMARK  153  A    between atoms: _394  and  _395
REMARK  154  A    between atoms: _400  and  _402
REMARK  155  A    between atoms: _402  and  _403
REMARK  156  A    between atoms: _402  and  _405
REMARK  157  A    between atoms: _405  and  _406
REMARK  158  A    between atoms: _409  and  _411
REMARK  159  A    between atoms: _411  and  _412
REMARK  160  A    between atoms: _411  and  _414
REMARK  161  A    between atoms: _414  and  _415
REMARK  162  A    between atoms: _417  and  _419
REMARK  163  A    between atoms: _419  and  _420
REMARK  164  A    between atoms: _419  and  _422
REMARK  165  A    between atoms: _422  and  _423
REMARK  166  A    between atoms: _428  and  _430
REMARK  167  A    between atoms: _430  and  _431
REMARK  168  A    between atoms: _430  and  _433
REMARK  169  A    between atoms: _436  and  _438
REMARK  170  A    between atoms: _438  and  _439
REMARK  171  A    between atoms: _438  and  _441
REMARK  172  A    between atoms: _441  and  _442
REMARK  173  A    between atoms: _442  and  _443
REMARK  174  A    between atoms: _449  and  _450
REMARK  175  A    between atoms: _455  and  _457
REMARK  176  A    between atoms: _457  and  _458
REMARK  177  A    between atoms: _457  and  _460
REMARK  178  A    between atoms: _460  and  _461
REMARK  179  A    between atoms: _464  and  _466
REMARK  180  A    between atoms: _466  and  _467
REMARK  181  A    between atoms: _466  and  _469
REMARK  182  A    between atoms: _469  and  _470
REMARK  183  A    between atoms: _473  and  _475
REMARK  184  A    between atoms: _475  and  _476
REMARK  185  A    between atoms: _475  and  _478
REMARK  186  A    between atoms: _478  and  _479
REMARK  187  A    between atoms: _481  and  _483
REMARK  188  A    between atoms: _483  and  _484
REMARK  189  A    between atoms: _483  and  _486
REMARK  190  A    between atoms: _486  and  _487
REMARK  191  A    between atoms: _492  and  _493
REMARK  192  A    between atoms: _495  and  _497
REMARK  193  A    between atoms: _497  and  _498
REMARK  194  A    between atoms: _497  and  _500
REMARK  195  A    between atoms: _500  and  _501
REMARK  196  A    between atoms: _506  and  _508
REMARK  197  A    between atoms: _508  and  _509
REMARK  198  A    between atoms: _508  and  _511
REMARK  199  A    between atoms: _511  and  _512
REMARK  200  A    between atoms: _515  and  _517
REMARK  201  A    between atoms: _517  and  _518
REMARK  202  A    between atoms: _517  and  _520
REMARK  203  A    between atoms: _520  and  _521
REMARK  204  A    between atoms: _531  and  _533
REMARK  205  A    between atoms: _533  and  _534
REMARK  206  A    between atoms: _536  and  _538
REMARK  207  A    between atoms: _538  and  _539
REMARK  208  A    between atoms: _538  and  _541
REMARK  209  A    between atoms: _541  and  _542
REMARK  210  A    between atoms: _547  and  _548
REMARK  211  A    between atoms: _550  and  _552
REMARK  212  A    between atoms: _552  and  _553
REMARK  213  A    between atoms: _552  and  _555
REMARK  214  A    between atoms: _555  and  _556
REMARK  215  A    between atoms: _556  and  _557
REMARK  216  A    between atoms: _557  and  _558
REMARK  217  A    between atoms: _567  and  _569
REMARK  218  A    between atoms: _569  and  _570
REMARK  219  A    between atoms: _569  and  _572
REMARK  220  A    between atoms: _572  and  _573
REMARK  221  A    between atoms: _573  and  _574
REMARK  222  A    between atoms: _574  and  _575
REMARK  223  A    between atoms: _575  and  _576
REMARK  224  A    between atoms: _580  and  _582
REMARK  225  A    between atoms: _582  and  _583
REMARK  226  A    between atoms: _585  and  _587
REMARK  227  A    between atoms: _587  and  _588
REMARK  228  A    between atoms: _591  and  _593
REMARK  229  A    between atoms: _593  and  _594
REMARK  230  A    between atoms: _593  and  _596
REMARK  231  A    between atoms: _596  and  _597
REMARK  232  A    between atoms: _602  and  _604
REMARK  233  A    between atoms: _604  and  _605
REMARK  234  A    between atoms: _608  and  _610
REMARK  235  A    between atoms: _610  and  _611
REMARK  236  A    between atoms: _614  and  _615
REMARK  237  A    between atoms: _620  and  _622
REMARK  238  A    between atoms: _622  and  _623
REMARK  239  A    between atoms: _622  and  _625
REMARK  240  A    between atoms: _625  and  _626
REMARK  241  A    between atoms: _629  and  _631
REMARK  242  A    between atoms: _631  and  _632
REMARK  243  A    between atoms: _631  and  _634
REMARK  244  A    between atoms: _634  and  _635
REMARK  245  A    between atoms: _645  and  _647
REMARK  246  A    between atoms: _647  and  _648
REMARK  247  A    between atoms: _647  and  _650
REMARK  248  A    between atoms: _650  and  _651
REMARK  249  A    between atoms: _657  and  _658
REMARK  250  A    between atoms: _663  and  _665
REMARK  251  A    between atoms: _665  and  _666
REMARK  252  A    between atoms: _665  and  _668
REMARK  253  A    between atoms: _668  and  _669
REMARK  254  A    between atoms: _672  and  _674
REMARK  255  A    between atoms: _674  and  _675
REMARK  256  A    between atoms: _674  and  _677
REMARK  257  A    between atoms: _677  and  _678
REMARK  258  A    between atoms: _678  and  _679
REMARK  259  A    between atoms: _682  and  _684
REMARK  260  A    between atoms: _684  and  _685
REMARK  261  A    between atoms: _684  and  _687
REMARK  262  A    between atoms: _687  and  _688
REMARK  263  A    between atoms: _688  and  _689
REMARK  264  A    between atoms: _689  and  _690
REMARK  265  A    between atoms: _690  and  _691
REMARK  266  A    between atoms: _695  and  _697
REMARK  267  A    between atoms: _697  and  _698
REMARK  268  A    between atoms: _700  and  _702
REMARK  269  A    between atoms: _702  and  _703
REMARK  270  A    between atoms: _702  and  _705
REMARK  271  A    between atoms: _705  and  _706
REMARK  272  A    between atoms: _711  and  _713
REMARK  273  A    between atoms: _713  and  _714
REMARK  274  A    between atoms: _713  and  _716
REMARK  275  A    between atoms: _716  and  _717
REMARK  276  A    between atoms: _717  and  _718
REMARK  277  A    between atoms: _718  and  _719
REMARK  278  A    between atoms: _728  and  _730
REMARK  279  A    between atoms: _730  and  _731
REMARK  280  A    between atoms: _730  and  _733
REMARK  281  A    between atoms: _733  and  _734
REMARK  282  A    between atoms: _737  and  _739
REMARK  283  A    between atoms: _739  and  _740
REMARK  284  A    between atoms: _739  and  _742
REMARK  285  A    between atoms: _745  and  _747
REMARK  286  A    between atoms: _747  and  _748
REMARK  287  A    between atoms: _747  and  _750
REMARK  288  A    between atoms: _750  and  _751
REMARK  289  A    between atoms: _751  and  _752
REMARK  290  A    between atoms: _758  and  _759
REMARK  291  A    between atoms: _764  and  _766
REMARK  292  A    between atoms: _766  and  _767
REMARK  293  A    between atoms: _766  and  _769
REMARK  294  A    between atoms: _769  and  _770
REMARK  295  A    between atoms: _773  and  _775
REMARK  296  A    between atoms: _775  and  _776
REMARK  297  A    between atoms: _775  and  _778
REMARK  298  A    between atoms: _778  and  _779
REMARK  299  A    between atoms: _782  and  _784
REMARK  300  A    between atoms: _784  and  _785
REMARK  301  A    between atoms: _784  and  _787
REMARK  302  A    between atoms: _787  and  _788
REMARK  303  A    between atoms: _790  and  _792
REMARK  304  A    between atoms: _792  and  _793
REMARK  305  A    between atoms: _792  and  _795
REMARK  306  A    between atoms: _795  and  _796
REMARK  307  A    between atoms: _796  and  _797
REMARK  308  A    between atoms: _797  and  _798
REMARK  309  A    between atoms: _807  and  _809
REMARK  310  A    between atoms: _809  and  _810
REMARK                            x       y       z     vdW  Elec       q    Type
REMARK                         _______ _______ _______ _____ _____    ______ ____
ROOT
ATOM      1  O   HOH     1     -27.364 -35.000 -24.474  0.00  0.00    +0.000 OA
ENDROOT
TORSDOF 0
REMARK  Name = ../refined-set-2016/3rt4/3rt4_pocket.pdb
REMARK  310 active torsions:
REMARK  status: ('A' for Active; 'I' for Inactive)
REMARK    1  A    between atoms: _1  and  _3
REMARK    2  A    between atoms: _3  and  _4
REMARK    3  A    between atoms: _3  and  _6
REMARK    4  A    between atoms: _6  and  _7
REMARK    5  A    between atoms: _7  and  _8
REMARK    6  A    between atoms: _8  and  _9
REMARK    7  A    between atoms: _18  and  _20
REMARK    8  A    between atoms: _20  and  _21
REMARK    9  A    between atoms: _20  and  _23
REMARK   10  A    between atoms: _26  and  _28
REMARK   11  A    between atoms: _28  and  _29
REMARK   12  A    between atoms: _28  and  _31
REMARK   13  A    between atoms: _31  and  _32
REMARK   14  A    between atoms: _32  and  _33
REMARK   15  A    between atoms: _33  and  _34
REMARK   16  A    between atoms: _43  and  _45
REMARK   17  A    between atoms: _45  and  _46
REMARK   18  A    between atoms: _45  and  _48
REMARK   19  A    between atoms: _48  and  _49
REMARK   20  A    between atoms: _51  and  _53
REMARK   21  A    between atoms: _53  and  _54
REMARK   22  A    between atoms: _53  and  _56
REMARK   23  A    between atoms: _56  and  _57
REMARK   24  A    between atoms: _62  and  _64
REMARK   25  A    between atoms: _64  and  _65
REMARK   26  A    between atoms: _64  and  _67
REMARK   27  A    between atoms: _67  and  _68
REMARK   28  A    between atoms: _73  and  _74
REMARK   29  A    between atoms: _76  and  _78
REMARK   30  A    between atoms: _78  and  _79
REMARK   31  A    between atoms: _78  and  _81
REMARK   32  A    between atoms: _81  and  _82
REMARK   33  A    between atoms: _82  and  _83
REMARK   34  A    between atoms: _86  and  _88
REMARK   35  A    between atoms: _88  and  _89
REMARK   36  A    between atoms: _88  and  _91
REMARK   37  A    between atoms: _91  and  _92
REMARK   38  A    between atoms: _92  and  _93
REMARK   39  A    between atoms: _93  and  _94
REMARK   40  A    between atoms: _94  and  _95
REMARK   41  A    between atoms: _99  and  _101
REMARK   42  A    between atoms: _101  and  _102
REMARK   43  A    between atoms: _101  and  _104
REMARK   44  A    between atoms: _104  and  _105
REMARK   45  A    between atoms: _110  and  _111
REMARK   46  A    between atoms: _113  and  _115
REMARK   47  A    between atoms: _115  and  _116
REMARK   48  A    between atoms: _115  and  _118
REMARK   49  A    between atoms: _118  and  _119
REMARK   50  A    between atoms: _119  and  _120
REMARK   51  A    between atoms: _120  and  _121
REMARK   52  A    between atoms: _130  and  _132
REMARK   53  A    between atoms: _132  and  _133
REMARK   54  A    between atoms: _136  and  _138
REMARK   55  A    between atoms: _138  and  _139
REMARK   56  A    between atoms: _138  and  _141
REMARK   57  A    between atoms: _141  and  _142
REMARK   58  A    between atoms: _142  and  _258
REMARK   59  A    between atoms: _143  and  _145
REMARK   60  A    between atoms: _145  and  _146
REMARK   61  A    between atoms: _145  and  _148
REMARK   62  A    between atoms: _148  and  _149
REMARK   63  A    between atoms: _149  and  _150
REMARK   64  A    between atoms: _153  and  _155
REMARK   65  A    between atoms: _155  and  _156
REMARK   66  A    between atoms: _155  and  _158
REMARK   67  A    between atoms: _158  and  _159
REMARK   68  A    between atoms: _161  and  _163
REMARK   69  A    between atoms: _163  and  _164
REMARK   70  A    between atoms: _163  and  _166
REMARK   71  A    between atoms: _166  and  _167
REMARK   72  A    between atoms: _172  and  _173
REMARK   73  A    between atoms: _175  and  _177
REMARK   74  A    between atoms: _177  and  _178
REMARK   75  A    between atoms: _177  and  _180
REMARK   76  A    between atoms: _180  and  _181
REMARK   77  A    between atoms: _186  and  _188
REMARK   78  A    between atoms: _188  and  _189
REMARK   79  A    between atoms: _188  and  _191
REMARK   80  A    between atoms: _194  and  _196
REMARK   81  A    between atoms: _196  and  _197
REMARK   82  A    between atoms: _196  and  _199
REMARK   83  A    between atoms: _199  and  _200
REMARK   84  A    between atoms: _200  and  _201
REMARK   85  A    between atoms: _201  and  _202
REMARK   86  A    between atoms: _211  and  _213
REMARK   87  A    between atoms: _213  and  _214
REMARK   88  A    between atoms: _213  and  _216
REMARK   89  A    between atoms: _216  and  _217
REMARK   90  A    between atoms: _222  and  _224
REMARK   91  A    between atoms: _224  and  _225
REMARK   92  A    between atoms: _224  and  _227
REMARK   93  A    between atoms: _227  and  _228
REMARK   94  A    between atoms: _231  and  _233
REMARK   95  A    between atoms: _233  and  _234
REMARK   96  A    between atoms: _236  and  _238
REMARK   97  A    between atoms: _238  and  _239
REMARK   98  A    between atoms: _238  and  _241
REMARK   99  A    between atoms: _241  and  _242
REMARK  100  A    between atoms: _252  and  _254
REMARK  101  A    between atoms: _254  and  _255
REMARK  102  A    between atoms: _254  and  _257
REMARK  103  A    between atoms: _257  and  _258
REMARK  104  A    between atoms: _259  and  _261
REMARK  105  A    between atoms: _261  and  _262
REMARK  106  A    between atoms: _261  and  _264
REMARK  107  A    between atoms: _264  and  _265
REMARK  108  A    between atoms: _268  and  _270
REMARK  109  A    between atoms: _270  and  _271
REMARK  110  A    between atoms: _273  and  _275
REMARK  111  A    between atoms: _275  and  _276
REMARK  112  A    between atoms: _275  and  _278
REMARK  113  A    between atoms: _278  and  _279
REMARK  114  A    between atoms: _284  and  _285
REMARK  115  A    between atoms: _287  and  _289
REMARK  116  A    between atoms: _289  and  _290
REMARK  117  A    between atoms: _289  and  _292
REMARK  118  A    between atoms: _292  and  _293
REMARK  119  A    between atoms: _293  and  _294
REMARK  120  A    between atoms: _294  and  _295
REMARK  121  A    between atoms: _304  and  _306
REMARK  122  A    between atoms: _306  and  _307
REMARK  123  A    between atoms: _306  and  _309
REMARK  124  A    between atoms: _309  and  _310
REMARK  125  A    between atoms: _310  and  _311
REMARK  126  A    between atoms: _311  and  _312
REMARK  127  A    between atoms: _312  and  _313
REMARK  128  A    between atoms: _317  and  _319
REMARK  129  A    between atoms: _319  and  _320
REMARK  130  A    between atoms: _322  and  _324
REMARK  131  A    between atoms: _324  and  _325
REMARK  132  A    between atoms: _328  and  _330
REMARK  133  A    between atoms: _330  and  _331
REMARK  134  A    between atoms: _330  and  _333
REMARK  135  A    between atoms: _333  and  _334
REMARK  136  A    between atoms: _339  and  _341
REMARK  137  A    between atoms: _341  and  _342
REMARK  138  A    between atoms: _345  and  _347
REMARK  139  A    between atoms: _347  and  _348
REMARK  140  A    between atoms: _351  and  _352
REMARK  141  A    between atoms: _357  and  _359
REMARK  142  A    between atoms: _359  and  _360
REMARK  143  A    between atoms: _359  and  _362
REMARK  144  A    between atoms: _362  and  _363
REMARK  145  A    between atoms: _366  and  _368
REMARK  146  A    between atoms: _368  and  _369
REMARK  147  A    between atoms: _368  and  _371
REMARK  148  A    between atoms: _371  and  _372
REMARK  149  A    between atoms: _382  and  _384
REMARK  150  A    between atoms: _384  and  _385
REMARK  151  A    between atoms: _384  and  _387
REMARK  152  A    between atoms: _387  and  _388
REMARK  153  A    between atoms: _394  and  _395
REMARK  154  A    between atoms: _400  and  _402
REMARK  155  A    between atoms: _402  and  _403
REMARK  156  A    between atoms: _402  and  _405
REMARK  157  A    between atoms: _405  and  _406
REMARK  158  A    between atoms: _409  and  _411
REMARK  159  A    between atoms: _411  and  _412
REMARK  160  A    between atoms: _411  and  _414
REMARK  161  A    between atoms: _414  and  _415
REMARK  162  A    between atoms: _417  and  _419
REMARK  163  A    between atoms: _419  and  _420
REMARK  164  A    between atoms: _419  and  _422
REMARK  165  A    between atoms: _422  and  _423
REMARK  166  A    between atoms: _428  and  _430
REMARK  167  A    between atoms: _430  and  _431
REMARK  168  A    between atoms: _430  and  _433
REMARK  169  A    between atoms: _436  and  _438
REMARK  170  A    between atoms: _438  and  _439
REMARK  171  A    between atoms: _438  and  _441
REMARK  172  A    between atoms: _441  and  _442
REMARK  173  A    between atoms: _442  and  _443
REMARK  174  A    between atoms: _449  and  _450
REMARK  175  A    between atoms: _455  and  _457
REMARK  176  A    between atoms: _457  and  _458
REMARK  177  A    between atoms: _457  and  _460
REMARK  178  A    between atoms: _460  and  _461
REMARK  179  A    between atoms: _464  and  _466
REMARK  180  A    between atoms: _466  and  _467
REMARK  181  A    between atoms: _466  and  _469
REMARK  182  A    between atoms: _469  and  _470
REMARK  183  A    between atoms: _473  and  _475
REMARK  184  A    between atoms: _475  and  _476
REMARK  185  A    between atoms: _475  and  _478
REMARK  186  A    between atoms: _478  and  _479
REMARK  187  A    between atoms: _481  and  _483
REMARK  188  A    between atoms: _483  and  _484
REMARK  189  A    between atoms: _483  and  _486
REMARK  190  A    between atoms: _486  and  _487
REMARK  191  A    between atoms: _492  and  _493
REMARK  192  A    between atoms: _495  and  _497
REMARK  193  A    between atoms: _497  and  _498
REMARK  194  A    between atoms: _497  and  _500
REMARK  195  A    between atoms: _500  and  _501
REMARK  196  A    between atoms: _506  and  _508
REMARK  197  A    between atoms: _508  and  _509
REMARK  198  A    between atoms: _508  and  _511
REMARK  199  A    between atoms: _511  and  _512
REMARK  200  A    between atoms: _515  and  _517
REMARK  201  A    between atoms: _517  and  _518
REMARK  202  A    between atoms: _517  and  _520
REMARK  203  A    between atoms: _520  and  _521
REMARK  204  A    between atoms: _531  and  _533
REMARK  205  A    between atoms: _533  and  _534
REMARK  206  A    between atoms: _536  and  _538
REMARK  207  A    between atoms: _538  and  _539
REMARK  208  A    between atoms: _538  and  _541
REMARK  209  A    between atoms: _541  and  _542
REMARK  210  A    between atoms: _547  and  _548
REMARK  211  A    between atoms: _550  and  _552
REMARK  212  A    between atoms: _552  and  _553
REMARK  213  A    between atoms: _552  and  _555
REMARK  214  A    between atoms: _555  and  _556
REMARK  215  A    between atoms: _556  and  _557
REMARK  216  A    between atoms: _557  and  _558
REMARK  217  A    between atoms: _567  and  _569
REMARK  218  A    between atoms: _569  and  _570
REMARK  219  A    between atoms: _569  and  _572
REMARK  220  A    between atoms: _572  and  _573
REMARK  221  A    between atoms: _573  and  _574
REMARK  222  A    between atoms: _574  and  _575
REMARK  223  A    between atoms: _575  and  _576
REMARK  224  A    between atoms: _580  and  _582
REMARK  225  A    between atoms: _582  and  _583
REMARK  226  A    between atoms: _585  and  _587
REMARK  227  A    between atoms: _587  and  _588
REMARK  228  A    between atoms: _591  and  _593
REMARK  229  A    between atoms: _593  and  _594
REMARK  230  A    between atoms: _593  and  _596
REMARK  231  A    between atoms: _596  and  _597
REMARK  232  A    between atoms: _602  and  _604
REMARK  233  A    between atoms: _604  and  _605
REMARK  234  A    between atoms: _608  and  _610
REMARK  235  A    between atoms: _610  and  _611
REMARK  236  A    between atoms: _614  and  _615
REMARK  237  A    between atoms: _620  and  _622
REMARK  238  A    between atoms: _622  and  _623
REMARK  239  A    between atoms: _622  and  _625
REMARK  240  A    between atoms: _625  and  _626
REMARK  241  A    between atoms: _629  and  _631
REMARK  242  A    between atoms: _631  and  _632
REMARK  243  A    between atoms: _631  and  _634
REMARK  244  A    between atoms: _634  and  _635
REMARK  245  A    between atoms: _645  and  _647
REMARK  246  A    between atoms: _647  and  _648
REMARK  247  A    between atoms: _647  and  _650
REMARK  248  A    between atoms: _650  and  _651
REMARK  249  A    between atoms: _657  and  _658
REMARK  250  A    between atoms: _663  and  _665
REMARK  251  A    between atoms: _665  and  _666
REMARK  252  A    between atoms: _665  and  _668
REMARK  253  A    between atoms: _668  and  _669
REMARK  254  A    between atoms: _672  and  _674
REMARK  255  A    between atoms: _674  and  _675
REMARK  256  A    between atoms: _674  and  _677
REMARK  257  A    between atoms: _677  and  _678
REMARK  258  A    between atoms: _678  and  _679
REMARK  259  A    between atoms: _682  and  _684
REMARK  260  A    between atoms: _684  and  _685
REMARK  261  A    between atoms: _684  and  _687
REMARK  262  A    between atoms: _687  and  _688
REMARK  263  A    between atoms: _688  and  _689
REMARK  264  A    between atoms: _689  and  _690
REMARK  265  A    between atoms: _690  and  _691
REMARK  266  A    between atoms: _695  and  _697
REMARK  267  A    between atoms: _697  and  _698
REMARK  268  A    between atoms: _700  and  _702
REMARK  269  A    between atoms: _702  and  _703
REMARK  270  A    between atoms: _702  and  _705
REMARK  271  A    between atoms: _705  and  _706
REMARK  272  A    between atoms: _711  and  _713
REMARK  273  A    between atoms: _713  and  _714
REMARK  274  A    between atoms: _713  and  _716
REMARK  275  A    between atoms: _716  and  _717
REMARK  276  A    between atoms: _717  and  _718
REMARK  277  A    between atoms: _718  and  _719
REMARK  278  A    between atoms: _728  and  _730
REMARK  279  A    between atoms: _730  and  _731
REMARK  280  A    between atoms: _730  and  _733
REMARK  281  A    between atoms: _733  and  _734
REMARK  282  A    between atoms: _737  and  _739
REMARK  283  A    between atoms: _739  and  _740
REMARK  284  A    between atoms: _739  and  _742
REMARK  285  A    between atoms: _745  and  _747
REMARK  286  A    between atoms: _747  and  _748
REMARK  287  A    between atoms: _747  and  _750
REMARK  288  A    between atoms: _750  and  _751
REMARK  289  A    between atoms: _751  and  _752
REMARK  290  A    between atoms: _758  and  _759
REMARK  291  A    between atoms: _764  and  _766
REMARK  292  A    between atoms: _766  and  _767
REMARK  293  A    between atoms: _766  and  _769
REMARK  294  A    between atoms: _769  and  _770
REMARK  295  A    between atoms: _773  and  _775
REMARK  296  A    between atoms: _775  and  _776
REMARK  297  A    between atoms: _775  and  _778
REMARK  298  A    between atoms: _778  and  _779
REMARK  299  A    between atoms: _782  and  _784
REMARK  300  A    between atoms: _784  and  _785
REMARK  301  A    between atoms: _784  and  _787
REMARK  302  A    between atoms: _787  and  _788
REMARK  303  A    between atoms: _790  and  _792
REMARK  304  A    between atoms: _792  and  _793
REMARK  305  A    between atoms: _792  and  _795
REMARK  306  A    between atoms: _795  and  _796
REMARK  307  A    between atoms: _796  and  _797
REMARK  308  A    between atoms: _797  and  _798
REMARK  309  A    between atoms: _807  and  _809
REMARK  310  A    between atoms: _809  and  _810
REMARK                            x       y       z     vdW  Elec       q    Type
REMARK                         _______ _______ _______ _____ _____    ______ ____
ROOT
ATOM      1  O   HOH     1     -18.005 -28.567 -20.839  0.00  0.00    +0.000 OA
ENDROOT
TORSDOF 0
REMARK  Name = ../refined-set-2016/3rt4/3rt4_pocket.pdb
REMARK  310 active torsions:
REMARK  status: ('A' for Active; 'I' for Inactive)
REMARK    1  A    between atoms: _1  and  _3
REMARK    2  A    between atoms: _3  and  _4
REMARK    3  A    between atoms: _3  and  _6
REMARK    4  A    between atoms: _6  and  _7
REMARK    5  A    between atoms: _7  and  _8
REMARK    6  A    between atoms: _8  and  _9
REMARK    7  A    between atoms: _18  and  _20
REMARK    8  A    between atoms: _20  and  _21
REMARK    9  A    between atoms: _20  and  _23
REMARK   10  A    between atoms: _26  and  _28
REMARK   11  A    between atoms: _28  and  _29
REMARK   12  A    between atoms: _28  and  _31
REMARK   13  A    between atoms: _31  and  _32
REMARK   14  A    between atoms: _32  and  _33
REMARK   15  A    between atoms: _33  and  _34
REMARK   16  A    between atoms: _43  and  _45
REMARK   17  A    between atoms: _45  and  _46
REMARK   18  A    between atoms: _45  and  _48
REMARK   19  A    between atoms: _48  and  _49
REMARK   20  A    between atoms: _51  and  _53
REMARK   21  A    between atoms: _53  and  _54
REMARK   22  A    between atoms: _53  and  _56
REMARK   23  A    between atoms: _56  and  _57
REMARK   24  A    between atoms: _62  and  _64
REMARK   25  A    between atoms: _64  and  _65
REMARK   26  A    between atoms: _64  and  _67
REMARK   27  A    between atoms: _67  and  _68
REMARK   28  A    between atoms: _73  and  _74
REMARK   29  A    between atoms: _76  and  _78
REMARK   30  A    between atoms: _78  and  _79
REMARK   31  A    between atoms: _78  and  _81
REMARK   32  A    between atoms: _81  and  _82
REMARK   33  A    between atoms: _82  and  _83
REMARK   34  A    between atoms: _86  and  _88
REMARK   35  A    between atoms: _88  and  _89
REMARK   36  A    between atoms: _88  and  _91
REMARK   37  A    between atoms: _91  and  _92
REMARK   38  A    between atoms: _92  and  _93
REMARK   39  A    between atoms: _93  and  _94
REMARK   40  A    between atoms: _94  and  _95
REMARK   41  A    between atoms: _99  and  _101
REMARK   42  A    between atoms: _101  and  _102
REMARK   43  A    between atoms: _101  and  _104
REMARK   44  A    between atoms: _104  and  _105
REMARK   45  A    between atoms: _110  and  _111
REMARK   46  A    between atoms: _113  and  _115
REMARK   47  A    between atoms: _115  and  _116
REMARK   48  A    between atoms: _115  and  _118
REMARK   49  A    between atoms: _118  and  _119
REMARK   50  A    between atoms: _119  and  _120
REMARK   51  A    between atoms: _120  and  _121
REMARK   52  A    between atoms: _130  and  _132
REMARK   53  A    between atoms: _132  and  _133
REMARK   54  A    between atoms: _136  and  _138
REMARK   55  A    between atoms: _138  and  _139
REMARK   56  A    between atoms: _138  and  _141
REMARK   57  A    between atoms: _141  and  _142
REMARK   58  A    between atoms: _142  and  _258
REMARK   59  A    between atoms: _143  and  _145
REMARK   60  A    between atoms: _145  and  _146
REMARK   61  A    between atoms: _145  and  _148
REMARK   62  A    between atoms: _148  and  _149
REMARK   63  A    between atoms: _149  and  _150
REMARK   64  A    between atoms: _153  and  _155
REMARK   65  A    between atoms: _155  and  _156
REMARK   66  A    between atoms: _155  and  _158
REMARK   67  A    between atoms: _158  and  _159
REMARK   68  A    between atoms: _161  and  _163
REMARK   69  A    between atoms: _163  and  _164
REMARK   70  A    between atoms: _163  and  _166
REMARK   71  A    between atoms: _166  and  _167
REMARK   72  A    between atoms: _172  and  _173
REMARK   73  A    between atoms: _175  and  _177
REMARK   74  A    between atoms: _177  and  _178
REMARK   75  A    between atoms: _177  and  _180
REMARK   76  A    between atoms: _180  and  _181
REMARK   77  A    between atoms: _186  and  _188
REMARK   78  A    between atoms: _188  and  _189
REMARK   79  A    between atoms: _188  and  _191
REMARK   80  A    between atoms: _194  and  _196
REMARK   81  A    between atoms: _196  and  _197
REMARK   82  A    between atoms: _196  and  _199
REMARK   83  A    between atoms: _199  and  _200
REMARK   84  A    between atoms: _200  and  _201
REMARK   85  A    between atoms: _201  and  _202
REMARK   86  A    between atoms: _211  and  _213
REMARK   87  A    between atoms: _213  and  _214
REMARK   88  A    between atoms: _213  and  _216
REMARK   89  A    between atoms: _216  and  _217
REMARK   90  A    between atoms: _222  and  _224
REMARK   91  A    between atoms: _224  and  _225
REMARK   92  A    between atoms: _224  and  _227
REMARK   93  A    between atoms: _227  and  _228
REMARK   94  A    between atoms: _231  and  _233
REMARK   95  A    between atoms: _233  and  _234
REMARK   96  A    between atoms: _236  and  _238
REMARK   97  A    between atoms: _238  and  _239
REMARK   98  A    between atoms: _238  and  _241
REMARK   99  A    between atoms: _241  and  _242
REMARK  100  A    between atoms: _252  and  _254
REMARK  101  A    between atoms: _254  and  _255
REMARK  102  A    between atoms: _254  and  _257
REMARK  103  A    between atoms: _257  and  _258
REMARK  104  A    between atoms: _259  and  _261
REMARK  105  A    between atoms: _261  and  _262
REMARK  106  A    between atoms: _261  and  _264
REMARK  107  A    between atoms: _264  and  _265
REMARK  108  A    between atoms: _268  and  _270
REMARK  109  A    between atoms: _270  and  _271
REMARK  110  A    between atoms: _273  and  _275
REMARK  111  A    between atoms: _275  and  _276
REMARK  112  A    between atoms: _275  and  _278
REMARK  113  A    between atoms: _278  and  _279
REMARK  114  A    between atoms: _284  and  _285
REMARK  115  A    between atoms: _287  and  _289
REMARK  116  A    between atoms: _289  and  _290
REMARK  117  A    between atoms: _289  and  _292
REMARK  118  A    between atoms: _292  and  _293
REMARK  119  A    between atoms: _293  and  _294
REMARK  120  A    between atoms: _294  and  _295
REMARK  121  A    between atoms: _304  and  _306
REMARK  122  A    between atoms: _306  and  _307
REMARK  123  A    between atoms: _306  and  _309
REMARK  124  A    between atoms: _309  and  _310
REMARK  125  A    between atoms: _310  and  _311
REMARK  126  A    between atoms: _311  and  _312
REMARK  127  A    between atoms: _312  and  _313
REMARK  128  A    between atoms: _317  and  _319
REMARK  129  A    between atoms: _319  and  _320
REMARK  130  A    between atoms: _322  and  _324
REMARK  131  A    between atoms: _324  and  _325
REMARK  132  A    between atoms: _328  and  _330
REMARK  133  A    between atoms: _330  and  _331
REMARK  134  A    between atoms: _330  and  _333
REMARK  135  A    between atoms: _333  and  _334
REMARK  136  A    between atoms: _339  and  _341
REMARK  137  A    between atoms: _341  and  _342
REMARK  138  A    between atoms: _345  and  _347
REMARK  139  A    between atoms: _347  and  _348
REMARK  140  A    between atoms: _351  and  _352
REMARK  141  A    between atoms: _357  and  _359
REMARK  142  A    between atoms: _359  and  _360
REMARK  143  A    between atoms: _359  and  _362
REMARK  144  A    between atoms: _362  and  _363
REMARK  145  A    between atoms: _366  and  _368
REMARK  146  A    between atoms: _368  and  _369
REMARK  147  A    between atoms: _368  and  _371
REMARK  148  A    between atoms: _371  and  _372
REMARK  149  A    between atoms: _382  and  _384
REMARK  150  A    between atoms: _384  and  _385
REMARK  151  A    between atoms: _384  and  _387
REMARK  152  A    between atoms: _387  and  _388
REMARK  153  A    between atoms: _394  and  _395
REMARK  154  A    between atoms: _400  and  _402
REMARK  155  A    between atoms: _402  and  _403
REMARK  156  A    between atoms: _402  and  _405
REMARK  157  A    between atoms: _405  and  _406
REMARK  158  A    between atoms: _409  and  _411
REMARK  159  A    between atoms: _411  and  _412
REMARK  160  A    between atoms: _411  and  _414
REMARK  161  A    between atoms: _414  and  _415
REMARK  162  A    between atoms: _417  and  _419
REMARK  163  A    between atoms: _419  and  _420
REMARK  164  A    between atoms: _419  and  _422
REMARK  165  A    between atoms: _422  and  _423
REMARK  166  A    between atoms: _428  and  _430
REMARK  167  A    between atoms: _430  and  _431
REMARK  168  A    between atoms: _430  and  _433
REMARK  169  A    between atoms: _436  and  _438
REMARK  170  A    between atoms: _438  and  _439
REMARK  171  A    between atoms: _438  and  _441
REMARK  172  A    between atoms: _441  and  _442
REMARK  173  A    between atoms: _442  and  _443
REMARK  174  A    between atoms: _449  and  _450
REMARK  175  A    between atoms: _455  and  _457
REMARK  176  A    between atoms: _457  and  _458
REMARK  177  A    between atoms: _457  and  _460
REMARK  178  A    between atoms: _460  and  _461
REMARK  179  A    between atoms: _464  and  _466
REMARK  180  A    between atoms: _466  and  _467
REMARK  181  A    between atoms: _466  and  _469
REMARK  182  A    between atoms: _469  and  _470
REMARK  183  A    between atoms: _473  and  _475
REMARK  184  A    between atoms: _475  and  _476
REMARK  185  A    between atoms: _475  and  _478
REMARK  186  A    between atoms: _478  and  _479
REMARK  187  A    between atoms: _481  and  _483
REMARK  188  A    between atoms: _483  and  _484
REMARK  189  A    between atoms: _483  and  _486
REMARK  190  A    between atoms: _486  and  _487
REMARK  191  A    between atoms: _492  and  _493
REMARK  192  A    between atoms: _495  and  _497
REMARK  193  A    between atoms: _497  and  _498
REMARK  194  A    between atoms: _497  and  _500
REMARK  195  A    between atoms: _500  and  _501
REMARK  196  A    between atoms: _506  and  _508
REMARK  197  A    between atoms: _508  and  _509
REMARK  198  A    between atoms: _508  and  _511
REMARK  199  A    between atoms: _511  and  _512
REMARK  200  A    between atoms: _515  and  _517
REMARK  201  A    between atoms: _517  and  _518
REMARK  202  A    between atoms: _517  and  _520
REMARK  203  A    between atoms: _520  and  _521
REMARK  204  A    between atoms: _531  and  _533
REMARK  205  A    between atoms: _533  and  _534
REMARK  206  A    between atoms: _536  and  _538
REMARK  207  A    between atoms: _538  and  _539
REMARK  208  A    between atoms: _538  and  _541
REMARK  209  A    between atoms: _541  and  _542
REMARK  210  A    between atoms: _547  and  _548
REMARK  211  A    between atoms: _550  and  _552
REMARK  212  A    between atoms: _552  and  _553
REMARK  213  A    between atoms: _552  and  _555
REMARK  214  A    between atoms: _555  and  _556
REMARK  215  A    between atoms: _556  and  _557
REMARK  216  A    between atoms: _557  and  _558
REMARK  217  A    between atoms: _567  and  _569
REMARK  218  A    between atoms: _569  and  _570
REMARK  219  A    between atoms: _569  and  _572
REMARK  220  A    between atoms: _572  and  _573
REMARK  221  A    between atoms: _573  and  _574
REMARK  222  A    between atoms: _574  and  _575
REMARK  223  A    between atoms: _575  and  _576
REMARK  224  A    between atoms: _580  and  _582
REMARK  225  A    between atoms: _582  and  _583
REMARK  226  A    between atoms: _585  and  _587
REMARK  227  A    between atoms: _587  and  _588
REMARK  228  A    between atoms: _591  and  _593
REMARK  229  A    between atoms: _593  and  _594
REMARK  230  A    between atoms: _593  and  _596
REMARK  231  A    between atoms: _596  and  _597
REMARK  232  A    between atoms: _602  and  _604
REMARK  233  A    between atoms: _604  and  _605
REMARK  234  A    between atoms: _608  and  _610
REMARK  235  A    between atoms: _610  and  _611
REMARK  236  A    between atoms: _614  and  _615
REMARK  237  A    between atoms: _620  and  _622
REMARK  238  A    between atoms: _622  and  _623
REMARK  239  A    between atoms: _622  and  _625
REMARK  240  A    between atoms: _625  and  _626
REMARK  241  A    between atoms: _629  and  _631
REMARK  242  A    between atoms: _631  and  _632
REMARK  243  A    between atoms: _631  and  _634
REMARK  244  A    between atoms: _634  and  _635
REMARK  245  A    between atoms: _645  and  _647
REMARK  246  A    between atoms: _647  and  _648
REMARK  247  A    between atoms: _647  and  _650
REMARK  248  A    between atoms: _650  and  _651
REMARK  249  A    between atoms: _657  and  _658
REMARK  250  A    between atoms: _663  and  _665
REMARK  251  A    between atoms: _665  and  _666
REMARK  252  A    between atoms: _665  and  _668
REMARK  253  A    between atoms: _668  and  _669
REMARK  254  A    between atoms: _672  and  _674
REMARK  255  A    between atoms: _674  and  _675
REMARK  256  A    between atoms: _674  and  _677
REMARK  257  A    between atoms: _677  and  _678
REMARK  258  A    between atoms: _678  and  _679
REMARK  259  A    between atoms: _682  and  _684
REMARK  260  A    between atoms: _684  and  _685
REMARK  261  A    between atoms: _684  and  _687
REMARK  262  A    between atoms: _687  and  _688
REMARK  263  A    between atoms: _688  and  _689
REMARK  264  A    between atoms: _689  and  _690
REMARK  265  A    between atoms: _690  and  _691
REMARK  266  A    between atoms: _695  and  _697
REMARK  267  A    between atoms: _697  and  _698
REMARK  268  A    between atoms: _700  and  _702
REMARK  269  A    between atoms: _702  and  _703
REMARK  270  A    between atoms: _702  and  _705
REMARK  271  A    between atoms: _705  and  _706
REMARK  272  A    between atoms: _711  and  _713
REMARK  273  A    between atoms: _713  and  _714
REMARK  274  A    between atoms: _713  and  _716
REMARK  275  A    between atoms: _716  and  _717
REMARK  276  A    between atoms: _717  and  _718
REMARK  277  A    between atoms: _718  and  _719
REMARK  278  A    between atoms: _728  and  _730
REMARK  279  A    between atoms: _730  and  _731
REMARK  280  A    between atoms: _730  and  _733
REMARK  281  A    between atoms: _733  and  _734
REMARK  282  A    between atoms: _737  and  _739
REMARK  283  A    between atoms: _739  and  _740
REMARK  284  A    between atoms: _739  and  _742
REMARK  285  A    between atoms: _745  and  _747
REMARK  286  A    between atoms: _747  and  _748
REMARK  287  A    between atoms: _747  and  _750
REMARK  288  A    between atoms: _750  and  _751
REMARK  289  A    between atoms: _751  and  _752
REMARK  290  A    between atoms: _758  and  _759
REMARK  291  A    between atoms: _764  and  _766
REMARK  292  A    between atoms: _766  and  _767
REMARK  293  A    between atoms: _766  and  _769
REMARK  294  A    between atoms: _769  and  _770
REMARK  295  A    between atoms: _773  and  _775
REMARK  296  A    between atoms: _775  and  _776
REMARK  297  A    between atoms: _775  and  _778
REMARK  298  A    between atoms: _778  and  _779
REMARK  299  A    between atoms: _782  and  _784
REMARK  300  A    between atoms: _784  and  _785
REMARK  301  A    between atoms: _784  and  _787
REMARK  302  A    between atoms: _787  and  _788
REMARK  303  A    between atoms: _790  and  _792
REMARK  304  A    between atoms: _792  and  _793
REMARK  305  A    between atoms: _792  and  _795
REMARK  306  A    between atoms: _795  and  _796
REMARK  307  A    between atoms: _796  and  _797
REMARK  308  A    between atoms: _797  and  _798
REMARK  309  A    between atoms: _807  and  _809
REMARK  310  A    between atoms: _809  and  _810
REMARK                            x       y       z     vdW  Elec       q    Type
REMARK                         _______ _______ _______ _____ _____    ______ ____
ROOT
ATOM      1  O   HOH     1     -39.076 -29.699 -23.980  0.00  0.00    +0.000 OA
ENDROOT
TORSDOF 0
REMARK  Name = ../refined-set-2016/3rt4/3rt4_pocket.pdb
REMARK  310 active torsions:
REMARK  status: ('A' for Active; 'I' for Inactive)
REMARK    1  A    between atoms: _1  and  _3
REMARK    2  A    between atoms: _3  and  _4
REMARK    3  A    between atoms: _3  and  _6
REMARK    4  A    between atoms: _6  and  _7
REMARK    5  A    between atoms: _7  and  _8
REMARK    6  A    between atoms: _8  and  _9
REMARK    7  A    between atoms: _18  and  _20
REMARK    8  A    between atoms: _20  and  _21
REMARK    9  A    between atoms: _20  and  _23
REMARK   10  A    between atoms: _26  and  _28
REMARK   11  A    between atoms: _28  and  _29
REMARK   12  A    between atoms: _28  and  _31
REMARK   13  A    between atoms: _31  and  _32
REMARK   14  A    between atoms: _32  and  _33
REMARK   15  A    between atoms: _33  and  _34
REMARK   16  A    between atoms: _43  and  _45
REMARK   17  A    between atoms: _45  and  _46
REMARK   18  A    between atoms: _45  and  _48
REMARK   19  A    between atoms: _48  and  _49
REMARK   20  A    between atoms: _51  and  _53
REMARK   21  A    between atoms: _53  and  _54
REMARK   22  A    between atoms: _53  and  _56
REMARK   23  A    between atoms: _56  and  _57
REMARK   24  A    between atoms: _62  and  _64
REMARK   25  A    between atoms: _64  and  _65
REMARK   26  A    between atoms: _64  and  _67
REMARK   27  A    between atoms: _67  and  _68
REMARK   28  A    between atoms: _73  and  _74
REMARK   29  A    between atoms: _76  and  _78
REMARK   30  A    between atoms: _78  and  _79
REMARK   31  A    between atoms: _78  and  _81
REMARK   32  A    between atoms: _81  and  _82
REMARK   33  A    between atoms: _82  and  _83
REMARK   34  A    between atoms: _86  and  _88
REMARK   35  A    between atoms: _88  and  _89
REMARK   36  A    between atoms: _88  and  _91
REMARK   37  A    between atoms: _91  and  _92
REMARK   38  A    between atoms: _92  and  _93
REMARK   39  A    between atoms: _93  and  _94
REMARK   40  A    between atoms: _94  and  _95
REMARK   41  A    between atoms: _99  and  _101
REMARK   42  A    between atoms: _101  and  _102
REMARK   43  A    between atoms: _101  and  _104
REMARK   44  A    between atoms: _104  and  _105
REMARK   45  A    between atoms: _110  and  _111
REMARK   46  A    between atoms: _113  and  _115
REMARK   47  A    between atoms: _115  and  _116
REMARK   48  A    between atoms: _115  and  _118
REMARK   49  A    between atoms: _118  and  _119
REMARK   50  A    between atoms: _119  and  _120
REMARK   51  A    between atoms: _120  and  _121
REMARK   52  A    between atoms: _130  and  _132
REMARK   53  A    between atoms: _132  and  _133
REMARK   54  A    between atoms: _136  and  _138
REMARK   55  A    between atoms: _138  and  _139
REMARK   56  A    between atoms: _138  and  _141
REMARK   57  A    between atoms: _141  and  _142
REMARK   58  A    between atoms: _142  and  _258
REMARK   59  A    between atoms: _143  and  _145
REMARK   60  A    between atoms: _145  and  _146
REMARK   61  A    between atoms: _145  and  _148
REMARK   62  A    between atoms: _148  and  _149
REMARK   63  A    between atoms: _149  and  _150
REMARK   64  A    between atoms: _153  and  _155
REMARK   65  A    between atoms: _155  and  _156
REMARK   66  A    between atoms: _155  and  _158
REMARK   67  A    between atoms: _158  and  _159
REMARK   68  A    between atoms: _161  and  _163
REMARK   69  A    between atoms: _163  and  _164
REMARK   70  A    between atoms: _163  and  _166
REMARK   71  A    between atoms: _166  and  _167
REMARK   72  A    between atoms: _172  and  _173
REMARK   73  A    between atoms: _175  and  _177
REMARK   74  A    between atoms: _177  and  _178
REMARK   75  A    between atoms: _177  and  _180
REMARK   76  A    between atoms: _180  and  _181
REMARK   77  A    between atoms: _186  and  _188
REMARK   78  A    between atoms: _188  and  _189
REMARK   79  A    between atoms: _188  and  _191
REMARK   80  A    between atoms: _194  and  _196
REMARK   81  A    between atoms: _196  and  _197
REMARK   82  A    between atoms: _196  and  _199
REMARK   83  A    between atoms: _199  and  _200
REMARK   84  A    between atoms: _200  and  _201
REMARK   85  A    between atoms: _201  and  _202
REMARK   86  A    between atoms: _211  and  _213
REMARK   87  A    between atoms: _213  and  _214
REMARK   88  A    between atoms: _213  and  _216
REMARK   89  A    between atoms: _216  and  _217
REMARK   90  A    between atoms: _222  and  _224
REMARK   91  A    between atoms: _224  and  _225
REMARK   92  A    between atoms: _224  and  _227
REMARK   93  A    between atoms: _227  and  _228
REMARK   94  A    between atoms: _231  and  _233
REMARK   95  A    between atoms: _233  and  _234
REMARK   96  A    between atoms: _236  and  _238
REMARK   97  A    between atoms: _238  and  _239
REMARK   98  A    between atoms: _238  and  _241
REMARK   99  A    between atoms: _241  and  _242
REMARK  100  A    between atoms: _252  and  _254
REMARK  101  A    between atoms: _254  and  _255
REMARK  102  A    between atoms: _254  and  _257
REMARK  103  A    between atoms: _257  and  _258
REMARK  104  A    between atoms: _259  and  _261
REMARK  105  A    between atoms: _261  and  _262
REMARK  106  A    between atoms: _261  and  _264
REMARK  107  A    between atoms: _264  and  _265
REMARK  108  A    between atoms: _268  and  _270
REMARK  109  A    between atoms: _270  and  _271
REMARK  110  A    between atoms: _273  and  _275
REMARK  111  A    between atoms: _275  and  _276
REMARK  112  A    between atoms: _275  and  _278
REMARK  113  A    between atoms: _278  and  _279
REMARK  114  A    between atoms: _284  and  _285
REMARK  115  A    between atoms: _287  and  _289
REMARK  116  A    between atoms: _289  and  _290
REMARK  117  A    between atoms: _289  and  _292
REMARK  118  A    between atoms: _292  and  _293
REMARK  119  A    between atoms: _293  and  _294
REMARK  120  A    between atoms: _294  and  _295
REMARK  121  A    between atoms: _304  and  _306
REMARK  122  A    between atoms: _306  and  _307
REMARK  123  A    between atoms: _306  and  _309
REMARK  124  A    between atoms: _309  and  _310
REMARK  125  A    between atoms: _310  and  _311
REMARK  126  A    between atoms: _311  and  _312
REMARK  127  A    between atoms: _312  and  _313
REMARK  128  A    between atoms: _317  and  _319
REMARK  129  A    between atoms: _319  and  _320
REMARK  130  A    between atoms: _322  and  _324
REMARK  131  A    between atoms: _324  and  _325
REMARK  132  A    between atoms: _328  and  _330
REMARK  133  A    between atoms: _330  and  _331
REMARK  134  A    between atoms: _330  and  _333
REMARK  135  A    between atoms: _333  and  _334
REMARK  136  A    between atoms: _339  and  _341
REMARK  137  A    between atoms: _341  and  _342
REMARK  138  A    between atoms: _345  and  _347
REMARK  139  A    between atoms: _347  and  _348
REMARK  140  A    between atoms: _351  and  _352
REMARK  141  A    between atoms: _357  and  _359
REMARK  142  A    between atoms: _359  and  _360
REMARK  143  A    between atoms: _359  and  _362
REMARK  144  A    between atoms: _362  and  _363
REMARK  145  A    between atoms: _366  and  _368
REMARK  146  A    between atoms: _368  and  _369
REMARK  147  A    between atoms: _368  and  _371
REMARK  148  A    between atoms: _371  and  _372
REMARK  149  A    between atoms: _382  and  _384
REMARK  150  A    between atoms: _384  and  _385
REMARK  151  A    between atoms: _384  and  _387
REMARK  152  A    between atoms: _387  and  _388
REMARK  153  A    between atoms: _394  and  _395
REMARK  154  A    between atoms: _400  and  _402
REMARK  155  A    between atoms: _402  and  _403
REMARK  156  A    between atoms: _402  and  _405
REMARK  157  A    between atoms: _405  and  _406
REMARK  158  A    between atoms: _409  and  _411
REMARK  159  A    between atoms: _411  and  _412
REMARK  160  A    between atoms: _411  and  _414
REMARK  161  A    between atoms: _414  and  _415
REMARK  162  A    between atoms: _417  and  _419
REMARK  163  A    between atoms: _419  and  _420
REMARK  164  A    between atoms: _419  and  _422
REMARK  165  A    between atoms: _422  and  _423
REMARK  166  A    between atoms: _428  and  _430
REMARK  167  A    between atoms: _430  and  _431
REMARK  168  A    between atoms: _430  and  _433
REMARK  169  A    between atoms: _436  and  _438
REMARK  170  A    between atoms: _438  and  _439
REMARK  171  A    between atoms: _438  and  _441
REMARK  172  A    between atoms: _441  and  _442
REMARK  173  A    between atoms: _442  and  _443
REMARK  174  A    between atoms: _449  and  _450
REMARK  175  A    between atoms: _455  and  _457
REMARK  176  A    between atoms: _457  and  _458
REMARK  177  A    between atoms: _457  and  _460
REMARK  178  A    between atoms: _460  and  _461
REMARK  179  A    between atoms: _464  and  _466
REMARK  180  A    between atoms: _466  and  _467
REMARK  181  A    between atoms: _466  and  _469
REMARK  182  A    between atoms: _469  and  _470
REMARK  183  A    between atoms: _473  and  _475
REMARK  184  A    between atoms: _475  and  _476
REMARK  185  A    between atoms: _475  and  _478
REMARK  186  A    between atoms: _478  and  _479
REMARK  187  A    between atoms: _481  and  _483
REMARK  188  A    between atoms: _483  and  _484
REMARK  189  A    between atoms: _483  and  _486
REMARK  190  A    between atoms: _486  and  _487
REMARK  191  A    between atoms: _492  and  _493
REMARK  192  A    between atoms: _495  and  _497
REMARK  193  A    between atoms: _497  and  _498
REMARK  194  A    between atoms: _497  and  _500
REMARK  195  A    between atoms: _500  and  _501
REMARK  196  A    between atoms: _506  and  _508
REMARK  197  A    between atoms: _508  and  _509
REMARK  198  A    between atoms: _508  and  _511
REMARK  199  A    between atoms: _511  and  _512
REMARK  200  A    between atoms: _515  and  _517
REMARK  201  A    between atoms: _517  and  _518
REMARK  202  A    between atoms: _517  and  _520
REMARK  203  A    between atoms: _520  and  _521
REMARK  204  A    between atoms: _531  and  _533
REMARK  205  A    between atoms: _533  and  _534
REMARK  206  A    between atoms: _536  and  _538
REMARK  207  A    between atoms: _538  and  _539
REMARK  208  A    between atoms: _538  and  _541
REMARK  209  A    between atoms: _541  and  _542
REMARK  210  A    between atoms: _547  and  _548
REMARK  211  A    between atoms: _550  and  _552
REMARK  212  A    between atoms: _552  and  _553
REMARK  213  A    between atoms: _552  and  _555
REMARK  214  A    between atoms: _555  and  _556
REMARK  215  A    between atoms: _556  and  _557
REMARK  216  A    between atoms: _557  and  _558
REMARK  217  A    between atoms: _567  and  _569
REMARK  218  A    between atoms: _569  and  _570
REMARK  219  A    between atoms: _569  and  _572
REMARK  220  A    between atoms: _572  and  _573
REMARK  221  A    between atoms: _573  and  _574
REMARK  222  A    between atoms: _574  and  _575
REMARK  223  A    between atoms: _575  and  _576
REMARK  224  A    between atoms: _580  and  _582
REMARK  225  A    between atoms: _582  and  _583
REMARK  226  A    between atoms: _585  and  _587
REMARK  227  A    between atoms: _587  and  _588
REMARK  228  A    between atoms: _591  and  _593
REMARK  229  A    between atoms: _593  and  _594
REMARK  230  A    between atoms: _593  and  _596
REMARK  231  A    between atoms: _596  and  _597
REMARK  232  A    between atoms: _602  and  _604
REMARK  233  A    between atoms: _604  and  _605
REMARK  234  A    between atoms: _608  and  _610
REMARK  235  A    between atoms: _610  and  _611
REMARK  236  A    between atoms: _614  and  _615
REMARK  237  A    between atoms: _620  and  _622
REMARK  238  A    between atoms: _622  and  _623
REMARK  239  A    between atoms: _622  and  _625
REMARK  240  A    between atoms: _625  and  _626
REMARK  241  A    between atoms: _629  and  _631
REMARK  242  A    between atoms: _631  and  _632
REMARK  243  A    between atoms: _631  and  _634
REMARK  244  A    between atoms: _634  and  _635
REMARK  245  A    between atoms: _645  and  _647
REMARK  246  A    between atoms: _647  and  _648
REMARK  247  A    between atoms: _647  and  _650
REMARK  248  A    between atoms: _650  and  _651
REMARK  249  A    between atoms: _657  and  _658
REMARK  250  A    between atoms: _663  and  _665
REMARK  251  A    between atoms: _665  and  _666
REMARK  252  A    between atoms: _665  and  _668
REMARK  253  A    between atoms: _668  and  _669
REMARK  254  A    between atoms: _672  and  _674
REMARK  255  A    between atoms: _674  and  _675
REMARK  256  A    between atoms: _674  and  _677
REMARK  257  A    between atoms: _677  and  _678
REMARK  258  A    between atoms: _678  and  _679
REMARK  259  A    between atoms: _682  and  _684
REMARK  260  A    between atoms: _684  and  _685
REMARK  261  A    between atoms: _684  and  _687
REMARK  262  A    between atoms: _687  and  _688
REMARK  263  A    between atoms: _688  and  _689
REMARK  264  A    between atoms: _689  and  _690
REMARK  265  A    between atoms: _690  and  _691
REMARK  266  A    between atoms: _695  and  _697
REMARK  267  A    between atoms: _697  and  _698
REMARK  268  A    between atoms: _700  and  _702
REMARK  269  A    between atoms: _702  and  _703
REMARK  270  A    between atoms: _702  and  _705
REMARK  271  A    between atoms: _705  and  _706
REMARK  272  A    between atoms: _711  and  _713
REMARK  273  A    between atoms: _713  and  _714
REMARK  274  A    between atoms: _713  and  _716
REMARK  275  A    between atoms: _716  and  _717
REMARK  276  A    between atoms: _717  and  _718
REMARK  277  A    between atoms: _718  and  _719
REMARK  278  A    between atoms: _728  and  _730
REMARK  279  A    between atoms: _730  and  _731
REMARK  280  A    between atoms: _730  and  _733
REMARK  281  A    between atoms: _733  and  _734
REMARK  282  A    between atoms: _737  and  _739
REMARK  283  A    between atoms: _739  and  _740
REMARK  284  A    between atoms: _739  and  _742
REMARK  285  A    between atoms: _745  and  _747
REMARK  286  A    between atoms: _747  and  _748
REMARK  287  A    between atoms: _747  and  _750
REMARK  288  A    between atoms: _750  and  _751
REMARK  289  A    between atoms: _751  and  _752
REMARK  290  A    between atoms: _758  and  _759
REMARK  291  A    between atoms: _764  and  _766
REMARK  292  A    between atoms: _766  and  _767
REMARK  293  A    between atoms: _766  and  _769
REMARK  294  A    between atoms: _769  and  _770
REMARK  295  A    between atoms: _773  and  _775
REMARK  296  A    between atoms: _775  and  _776
REMARK  297  A    between atoms: _775  and  _778
REMARK  298  A    between atoms: _778  and  _779
REMARK  299  A    between atoms: _782  and  _784
REMARK  300  A    between atoms: _784  and  _785
REMARK  301  A    between atoms: _784  and  _787
REMARK  302  A    between atoms: _787  and  _788
REMARK  303  A    between atoms: _790  and  _792
REMARK  304  A    between atoms: _792  and  _793
REMARK  305  A    between atoms: _792  and  _795
REMARK  306  A    between atoms: _795  and  _796
REMARK  307  A    between atoms: _796  and  _797
REMARK  308  A    between atoms: _797  and  _798
REMARK  309  A    between atoms: _807  and  _809
REMARK  310  A    between atoms: _809  and  _810
REMARK                            x       y       z     vdW  Elec       q    Type
REMARK                         _______ _______ _______ _____ _____    ______ ____
ROOT
ATOM      1  O   HOH     1     -26.254 -25.064 -17.219  0.00  0.00    +0.000 OA
ENDROOT
TORSDOF 0
REMARK  Name = ../refined-set-2016/3rt4/3rt4_pocket.pdb
REMARK  310 active torsions:
REMARK  status: ('A' for Active; 'I' for Inactive)
REMARK    1  A    between atoms: _1  and  _3
REMARK    2  A    between atoms: _3  and  _4
REMARK    3  A    between atoms: _3  and  _6
REMARK    4  A    between atoms: _6  and  _7
REMARK    5  A    between atoms: _7  and  _8
REMARK    6  A    between atoms: _8  and  _9
REMARK    7  A    between atoms: _18  and  _20
REMARK    8  A    between atoms: _20  and  _21
REMARK    9  A    between atoms: _20  and  _23
REMARK   10  A    between atoms: _26  and  _28
REMARK   11  A    between atoms: _28  and  _29
REMARK   12  A    between atoms: _28  and  _31
REMARK   13  A    between atoms: _31  and  _32
REMARK   14  A    between atoms: _32  and  _33
REMARK   15  A    between atoms: _33  and  _34
REMARK   16  A    between atoms: _43  and  _45
REMARK   17  A    between atoms: _45  and  _46
REMARK   18  A    between atoms: _45  and  _48
REMARK   19  A    between atoms: _48  and  _49
REMARK   20  A    between atoms: _51  and  _53
REMARK   21  A    between atoms: _53  and  _54
REMARK   22  A    between atoms: _53  and  _56
REMARK   23  A    between atoms: _56  and  _57
REMARK   24  A    between atoms: _62  and  _64
REMARK   25  A    between atoms: _64  and  _65
REMARK   26  A    between atoms: _64  and  _67
REMARK   27  A    between atoms: _67  and  _68
REMARK   28  A    between atoms: _73  and  _74
REMARK   29  A    between atoms: _76  and  _78
REMARK   30  A    between atoms: _78  and  _79
REMARK   31  A    between atoms: _78  and  _81
REMARK   32  A    between atoms: _81  and  _82
REMARK   33  A    between atoms: _82  and  _83
REMARK   34  A    between atoms: _86  and  _88
REMARK   35  A    between atoms: _88  and  _89
REMARK   36  A    between atoms: _88  and  _91
REMARK   37  A    between atoms: _91  and  _92
REMARK   38  A    between atoms: _92  and  _93
REMARK   39  A    between atoms: _93  and  _94
REMARK   40  A    between atoms: _94  and  _95
REMARK   41  A    between atoms: _99  and  _101
REMARK   42  A    between atoms: _101  and  _102
REMARK   43  A    between atoms: _101  and  _104
REMARK   44  A    between atoms: _104  and  _105
REMARK   45  A    between atoms: _110  and  _111
REMARK   46  A    between atoms: _113  and  _115
REMARK   47  A    between atoms: _115  and  _116
REMARK   48  A    between atoms: _115  and  _118
REMARK   49  A    between atoms: _118  and  _119
REMARK   50  A    between atoms: _119  and  _120
REMARK   51  A    between atoms: _120  and  _121
REMARK   52  A    between atoms: _130  and  _132
REMARK   53  A    between atoms: _132  and  _133
REMARK   54  A    between atoms: _136  and  _138
REMARK   55  A    between atoms: _138  and  _139
REMARK   56  A    between atoms: _138  and  _141
REMARK   57  A    between atoms: _141  and  _142
REMARK   58  A    between atoms: _142  and  _258
REMARK   59  A    between atoms: _143  and  _145
REMARK   60  A    between atoms: _145  and  _146
REMARK   61  A    between atoms: _145  and  _148
REMARK   62  A    between atoms: _148  and  _149
REMARK   63  A    between atoms: _149  and  _150
REMARK   64  A    between atoms: _153  and  _155
REMARK   65  A    between atoms: _155  and  _156
REMARK   66  A    between atoms: _155  and  _158
REMARK   67  A    between atoms: _158  and  _159
REMARK   68  A    between atoms: _161  and  _163
REMARK   69  A    between atoms: _163  and  _164
REMARK   70  A    between atoms: _163  and  _166
REMARK   71  A    between atoms: _166  and  _167
REMARK   72  A    between atoms: _172  and  _173
REMARK   73  A    between atoms: _175  and  _177
REMARK   74  A    between atoms: _177  and  _178
REMARK   75  A    between atoms: _177  and  _180
REMARK   76  A    between atoms: _180  and  _181
REMARK   77  A    between atoms: _186  and  _188
REMARK   78  A    between atoms: _188  and  _189
REMARK   79  A    between atoms: _188  and  _191
REMARK   80  A    between atoms: _194  and  _196
REMARK   81  A    between atoms: _196  and  _197
REMARK   82  A    between atoms: _196  and  _199
REMARK   83  A    between atoms: _199  and  _200
REMARK   84  A    between atoms: _200  and  _201
REMARK   85  A    between atoms: _201  and  _202
REMARK   86  A    between atoms: _211  and  _213
REMARK   87  A    between atoms: _213  and  _214
REMARK   88  A    between atoms: _213  and  _216
REMARK   89  A    between atoms: _216  and  _217
REMARK   90  A    between atoms: _222  and  _224
REMARK   91  A    between atoms: _224  and  _225
REMARK   92  A    between atoms: _224  and  _227
REMARK   93  A    between atoms: _227  and  _228
REMARK   94  A    between atoms: _231  and  _233
REMARK   95  A    between atoms: _233  and  _234
REMARK   96  A    between atoms: _236  and  _238
REMARK   97  A    between atoms: _238  and  _239
REMARK   98  A    between atoms: _238  and  _241
REMARK   99  A    between atoms: _241  and  _242
REMARK  100  A    between atoms: _252  and  _254
REMARK  101  A    between atoms: _254  and  _255
REMARK  102  A    between atoms: _254  and  _257
REMARK  103  A    between atoms: _257  and  _258
REMARK  104  A    between atoms: _259  and  _261
REMARK  105  A    between atoms: _261  and  _262
REMARK  106  A    between atoms: _261  and  _264
REMARK  107  A    between atoms: _264  and  _265
REMARK  108  A    between atoms: _268  and  _270
REMARK  109  A    between atoms: _270  and  _271
REMARK  110  A    between atoms: _273  and  _275
REMARK  111  A    between atoms: _275  and  _276
REMARK  112  A    between atoms: _275  and  _278
REMARK  113  A    between atoms: _278  and  _279
REMARK  114  A    between atoms: _284  and  _285
REMARK  115  A    between atoms: _287  and  _289
REMARK  116  A    between atoms: _289  and  _290
REMARK  117  A    between atoms: _289  and  _292
REMARK  118  A    between atoms: _292  and  _293
REMARK  119  A    between atoms: _293  and  _294
REMARK  120  A    between atoms: _294  and  _295
REMARK  121  A    between atoms: _304  and  _306
REMARK  122  A    between atoms: _306  and  _307
REMARK  123  A    between atoms: _306  and  _309
REMARK  124  A    between atoms: _309  and  _310
REMARK  125  A    between atoms: _310  and  _311
REMARK  126  A    between atoms: _311  and  _312
REMARK  127  A    between atoms: _312  and  _313
REMARK  128  A    between atoms: _317  and  _319
REMARK  129  A    between atoms: _319  and  _320
REMARK  130  A    between atoms: _322  and  _324
REMARK  131  A    between atoms: _324  and  _325
REMARK  132  A    between atoms: _328  and  _330
REMARK  133  A    between atoms: _330  and  _331
REMARK  134  A    between atoms: _330  and  _333
REMARK  135  A    between atoms: _333  and  _334
REMARK  136  A    between atoms: _339  and  _341
REMARK  137  A    between atoms: _341  and  _342
REMARK  138  A    between atoms: _345  and  _347
REMARK  139  A    between atoms: _347  and  _348
REMARK  140  A    between atoms: _351  and  _352
REMARK  141  A    between atoms: _357  and  _359
REMARK  142  A    between atoms: _359  and  _360
REMARK  143  A    between atoms: _359  and  _362
REMARK  144  A    between atoms: _362  and  _363
REMARK  145  A    between atoms: _366  and  _368
REMARK  146  A    between atoms: _368  and  _369
REMARK  147  A    between atoms: _368  and  _371
REMARK  148  A    between atoms: _371  and  _372
REMARK  149  A    between atoms: _382  and  _384
REMARK  150  A    between atoms: _384  and  _385
REMARK  151  A    between atoms: _384  and  _387
REMARK  152  A    between atoms: _387  and  _388
REMARK  153  A    between atoms: _394  and  _395
REMARK  154  A    between atoms: _400  and  _402
REMARK  155  A    between atoms: _402  and  _403
REMARK  156  A    between atoms: _402  and  _405
REMARK  157  A    between atoms: _405  and  _406
REMARK  158  A    between atoms: _409  and  _411
REMARK  159  A    between atoms: _411  and  _412
REMARK  160  A    between atoms: _411  and  _414
REMARK  161  A    between atoms: _414  and  _415
REMARK  162  A    between atoms: _417  and  _419
REMARK  163  A    between atoms: _419  and  _420
REMARK  164  A    between atoms: _419  and  _422
REMARK  165  A    between atoms: _422  and  _423
REMARK  166  A    between atoms: _428  and  _430
REMARK  167  A    between atoms: _430  and  _431
REMARK  168  A    between atoms: _430  and  _433
REMARK  169  A    between atoms: _436  and  _438
REMARK  170  A    between atoms: _438  and  _439
REMARK  171  A    between atoms: _438  and  _441
REMARK  172  A    between atoms: _441  and  _442
REMARK  173  A    between atoms: _442  and  _443
REMARK  174  A    between atoms: _449  and  _450
REMARK  175  A    between atoms: _455  and  _457
REMARK  176  A    between atoms: _457  and  _458
REMARK  177  A    between atoms: _457  and  _460
REMARK  178  A    between atoms: _460  and  _461
REMARK  179  A    between atoms: _464  and  _466
REMARK  180  A    between atoms: _466  and  _467
REMARK  181  A    between atoms: _466  and  _469
REMARK  182  A    between atoms: _469  and  _470
REMARK  183  A    between atoms: _473  and  _475
REMARK  184  A    between atoms: _475  and  _476
REMARK  185  A    between atoms: _475  and  _478
REMARK  186  A    between atoms: _478  and  _479
REMARK  187  A    between atoms: _481  and  _483
REMARK  188  A    between atoms: _483  and  _484
REMARK  189  A    between atoms: _483  and  _486
REMARK  190  A    between atoms: _486  and  _487
REMARK  191  A    between atoms: _492  and  _493
REMARK  192  A    between atoms: _495  and  _497
REMARK  193  A    between atoms: _497  and  _498
REMARK  194  A    between atoms: _497  and  _500
REMARK  195  A    between atoms: _500  and  _501
REMARK  196  A    between atoms: _506  and  _508
REMARK  197  A    between atoms: _508  and  _509
REMARK  198  A    between atoms: _508  and  _511
REMARK  199  A    between atoms: _511  and  _512
REMARK  200  A    between atoms: _515  and  _517
REMARK  201  A    between atoms: _517  and  _518
REMARK  202  A    between atoms: _517  and  _520
REMARK  203  A    between atoms: _520  and  _521
REMARK  204  A    between atoms: _531  and  _533
REMARK  205  A    between atoms: _533  and  _534
REMARK  206  A    between atoms: _536  and  _538
REMARK  207  A    between atoms: _538  and  _539
REMARK  208  A    between atoms: _538  and  _541
REMARK  209  A    between atoms: _541  and  _542
REMARK  210  A    between atoms: _547  and  _548
REMARK  211  A    between atoms: _550  and  _552
REMARK  212  A    between atoms: _552  and  _553
REMARK  213  A    between atoms: _552  and  _555
REMARK  214  A    between atoms: _555  and  _556
REMARK  215  A    between atoms: _556  and  _557
REMARK  216  A    between atoms: _557  and  _558
REMARK  217  A    between atoms: _567  and  _569
REMARK  218  A    between atoms: _569  and  _570
REMARK  219  A    between atoms: _569  and  _572
REMARK  220  A    between atoms: _572  and  _573
REMARK  221  A    between atoms: _573  and  _574
REMARK  222  A    between atoms: _574  and  _575
REMARK  223  A    between atoms: _575  and  _576
REMARK  224  A    between atoms: _580  and  _582
REMARK  225  A    between atoms: _582  and  _583
REMARK  226  A    between atoms: _585  and  _587
REMARK  227  A    between atoms: _587  and  _588
REMARK  228  A    between atoms: _591  and  _593
REMARK  229  A    between atoms: _593  and  _594
REMARK  230  A    between atoms: _593  and  _596
REMARK  231  A    between atoms: _596  and  _597
REMARK  232  A    between atoms: _602  and  _604
REMARK  233  A    between atoms: _604  and  _605
REMARK  234  A    between atoms: _608  and  _610
REMARK  235  A    between atoms: _610  and  _611
REMARK  236  A    between atoms: _614  and  _615
REMARK  237  A    between atoms: _620  and  _622
REMARK  238  A    between atoms: _622  and  _623
REMARK  239  A    between atoms: _622  and  _625
REMARK  240  A    between atoms: _625  and  _626
REMARK  241  A    between atoms: _629  and  _631
REMARK  242  A    between atoms: _631  and  _632
REMARK  243  A    between atoms: _631  and  _634
REMARK  244  A    between atoms: _634  and  _635
REMARK  245  A    between atoms: _645  and  _647
REMARK  246  A    between atoms: _647  and  _648
REMARK  247  A    between atoms: _647  and  _650
REMARK  248  A    between atoms: _650  and  _651
REMARK  249  A    between atoms: _657  and  _658
REMARK  250  A    between atoms: _663  and  _665
REMARK  251  A    between atoms: _665  and  _666
REMARK  252  A    between atoms: _665  and  _668
REMARK  253  A    between atoms: _668  and  _669
REMARK  254  A    between atoms: _672  and  _674
REMARK  255  A    between atoms: _674  and  _675
REMARK  256  A    between atoms: _674  and  _677
REMARK  257  A    between atoms: _677  and  _678
REMARK  258  A    between atoms: _678  and  _679
REMARK  259  A    between atoms: _682  and  _684
REMARK  260  A    between atoms: _684  and  _685
REMARK  261  A    between atoms: _684  and  _687
REMARK  262  A    between atoms: _687  and  _688
REMARK  263  A    between atoms: _688  and  _689
REMARK  264  A    between atoms: _689  and  _690
REMARK  265  A    between atoms: _690  and  _691
REMARK  266  A    between atoms: _695  and  _697
REMARK  267  A    between atoms: _697  and  _698
REMARK  268  A    between atoms: _700  and  _702
REMARK  269  A    between atoms: _702  and  _703
REMARK  270  A    between atoms: _702  and  _705
REMARK  271  A    between atoms: _705  and  _706
REMARK  272  A    between atoms: _711  and  _713
REMARK  273  A    between atoms: _713  and  _714
REMARK  274  A    between atoms: _713  and  _716
REMARK  275  A    between atoms: _716  and  _717
REMARK  276  A    between atoms: _717  and  _718
REMARK  277  A    between atoms: _718  and  _719
REMARK  278  A    between atoms: _728  and  _730
REMARK  279  A    between atoms: _730  and  _731
REMARK  280  A    between atoms: _730  and  _733
REMARK  281  A    between atoms: _733  and  _734
REMARK  282  A    between atoms: _737  and  _739
REMARK  283  A    between atoms: _739  and  _740
REMARK  284  A    between atoms: _739  and  _742
REMARK  285  A    between atoms: _745  and  _747
REMARK  286  A    between atoms: _747  and  _748
REMARK  287  A    between atoms: _747  and  _750
REMARK  288  A    between atoms: _750  and  _751
REMARK  289  A    between atoms: _751  and  _752
REMARK  290  A    between atoms: _758  and  _759
REMARK  291  A    between atoms: _764  and  _766
REMARK  292  A    between atoms: _766  and  _767
REMARK  293  A    between atoms: _766  and  _769
REMARK  294  A    between atoms: _769  and  _770
REMARK  295  A    between atoms: _773  and  _775
REMARK  296  A    between atoms: _775  and  _776
REMARK  297  A    between atoms: _775  and  _778
REMARK  298  A    between atoms: _778  and  _779
REMARK  299  A    between atoms: _782  and  _784
REMARK  300  A    between atoms: _784  and  _785
REMARK  301  A    between atoms: _784  and  _787
REMARK  302  A    between atoms: _787  and  _788
REMARK  303  A    between atoms: _790  and  _792
REMARK  304  A    between atoms: _792  and  _793
REMARK  305  A    between atoms: _792  and  _795
REMARK  306  A    between atoms: _795  and  _796
REMARK  307  A    between atoms: _796  and  _797
REMARK  308  A    between atoms: _797  and  _798
REMARK  309  A    between atoms: _807  and  _809
REMARK  310  A    between atoms: _809  and  _810
REMARK                            x       y       z     vdW  Elec       q    Type
REMARK                         _______ _______ _______ _____ _____    ______ ____
ROOT
ATOM      1  O   HOH     1     -29.235 -33.112 -14.481  0.00  0.00    +0.000 OA
ENDROOT
TORSDOF 0
REMARK  Name = ../refined-set-2016/3rt4/3rt4_pocket.pdb
REMARK  310 active torsions:
REMARK  status: ('A' for Active; 'I' for Inactive)
REMARK    1  A    between atoms: _1  and  _3
REMARK    2  A    between atoms: _3  and  _4
REMARK    3  A    between atoms: _3  and  _6
REMARK    4  A    between atoms: _6  and  _7
REMARK    5  A    between atoms: _7  and  _8
REMARK    6  A    between atoms: _8  and  _9
REMARK    7  A    between atoms: _18  and  _20
REMARK    8  A    between atoms: _20  and  _21
REMARK    9  A    between atoms: _20  and  _23
REMARK   10  A    between atoms: _26  and  _28
REMARK   11  A    between atoms: _28  and  _29
REMARK   12  A    between atoms: _28  and  _31
REMARK   13  A    between atoms: _31  and  _32
REMARK   14  A    between atoms: _32  and  _33
REMARK   15  A    between atoms: _33  and  _34
REMARK   16  A    between atoms: _43  and  _45
REMARK   17  A    between atoms: _45  and  _46
REMARK   18  A    between atoms: _45  and  _48
REMARK   19  A    between atoms: _48  and  _49
REMARK   20  A    between atoms: _51  and  _53
REMARK   21  A    between atoms: _53  and  _54
REMARK   22  A    between atoms: _53  and  _56
REMARK   23  A    between atoms: _56  and  _57
REMARK   24  A    between atoms: _62  and  _64
REMARK   25  A    between atoms: _64  and  _65
REMARK   26  A    between atoms: _64  and  _67
REMARK   27  A    between atoms: _67  and  _68
REMARK   28  A    between atoms: _73  and  _74
REMARK   29  A    between atoms: _76  and  _78
REMARK   30  A    between atoms: _78  and  _79
REMARK   31  A    between atoms: _78  and  _81
REMARK   32  A    between atoms: _81  and  _82
REMARK   33  A    between atoms: _82  and  _83
REMARK   34  A    between atoms: _86  and  _88
REMARK   35  A    between atoms: _88  and  _89
REMARK   36  A    between atoms: _88  and  _91
REMARK   37  A    between atoms: _91  and  _92
REMARK   38  A    between atoms: _92  and  _93
REMARK   39  A    between atoms: _93  and  _94
REMARK   40  A    between atoms: _94  and  _95
REMARK   41  A    between atoms: _99  and  _101
REMARK   42  A    between atoms: _101  and  _102
REMARK   43  A    between atoms: _101  and  _104
REMARK   44  A    between atoms: _104  and  _105
REMARK   45  A    between atoms: _110  and  _111
REMARK   46  A    between atoms: _113  and  _115
REMARK   47  A    between atoms: _115  and  _116
REMARK   48  A    between atoms: _115  and  _118
REMARK   49  A    between atoms: _118  and  _119
REMARK   50  A    between atoms: _119  and  _120
REMARK   51  A    between atoms: _120  and  _121
REMARK   52  A    between atoms: _130  and  _132
REMARK   53  A    between atoms: _132  and  _133
REMARK   54  A    between atoms: _136  and  _138
REMARK   55  A    between atoms: _138  and  _139
REMARK   56  A    between atoms: _138  and  _141
REMARK   57  A    between atoms: _141  and  _142
REMARK   58  A    between atoms: _142  and  _258
REMARK   59  A    between atoms: _143  and  _145
REMARK   60  A    between atoms: _145  and  _146
REMARK   61  A    between atoms: _145  and  _148
REMARK   62  A    between atoms: _148  and  _149
REMARK   63  A    between atoms: _149  and  _150
REMARK   64  A    between atoms: _153  and  _155
REMARK   65  A    between atoms: _155  and  _156
REMARK   66  A    between atoms: _155  and  _158
REMARK   67  A    between atoms: _158  and  _159
REMARK   68  A    between atoms: _161  and  _163
REMARK   69  A    between atoms: _163  and  _164
REMARK   70  A    between atoms: _163  and  _166
REMARK   71  A    between atoms: _166  and  _167
REMARK   72  A    between atoms: _172  and  _173
REMARK   73  A    between atoms: _175  and  _177
REMARK   74  A    between atoms: _177  and  _178
REMARK   75  A    between atoms: _177  and  _180
REMARK   76  A    between atoms: _180  and  _181
REMARK   77  A    between atoms: _186  and  _188
REMARK   78  A    between atoms: _188  and  _189
REMARK   79  A    between atoms: _188  and  _191
REMARK   80  A    between atoms: _194  and  _196
REMARK   81  A    between atoms: _196  and  _197
REMARK   82  A    between atoms: _196  and  _199
REMARK   83  A    between atoms: _199  and  _200
REMARK   84  A    between atoms: _200  and  _201
REMARK   85  A    between atoms: _201  and  _202
REMARK   86  A    between atoms: _211  and  _213
REMARK   87  A    between atoms: _213  and  _214
REMARK   88  A    between atoms: _213  and  _216
REMARK   89  A    between atoms: _216  and  _217
REMARK   90  A    between atoms: _222  and  _224
REMARK   91  A    between atoms: _224  and  _225
REMARK   92  A    between atoms: _224  and  _227
REMARK   93  A    between atoms: _227  and  _228
REMARK   94  A    between atoms: _231  and  _233
REMARK   95  A    between atoms: _233  and  _234
REMARK   96  A    between atoms: _236  and  _238
REMARK   97  A    between atoms: _238  and  _239
REMARK   98  A    between atoms: _238  and  _241
REMARK   99  A    between atoms: _241  and  _242
REMARK  100  A    between atoms: _252  and  _254
REMARK  101  A    between atoms: _254  and  _255
REMARK  102  A    between atoms: _254  and  _257
REMARK  103  A    between atoms: _257  and  _258
REMARK  104  A    between atoms: _259  and  _261
REMARK  105  A    between atoms: _261  and  _262
REMARK  106  A    between atoms: _261  and  _264
REMARK  107  A    between atoms: _264  and  _265
REMARK  108  A    between atoms: _268  and  _270
REMARK  109  A    between atoms: _270  and  _271
REMARK  110  A    between atoms: _273  and  _275
REMARK  111  A    between atoms: _275  and  _276
REMARK  112  A    between atoms: _275  and  _278
REMARK  113  A    between atoms: _278  and  _279
REMARK  114  A    between atoms: _284  and  _285
REMARK  115  A    between atoms: _287  and  _289
REMARK  116  A    between atoms: _289  and  _290
REMARK  117  A    between atoms: _289  and  _292
REMARK  118  A    between atoms: _292  and  _293
REMARK  119  A    between atoms: _293  and  _294
REMARK  120  A    between atoms: _294  and  _295
REMARK  121  A    between atoms: _304  and  _306
REMARK  122  A    between atoms: _306  and  _307
REMARK  123  A    between atoms: _306  and  _309
REMARK  124  A    between atoms: _309  and  _310
REMARK  125  A    between atoms: _310  and  _311
REMARK  126  A    between atoms: _311  and  _312
REMARK  127  A    between atoms: _312  and  _313
REMARK  128  A    between atoms: _317  and  _319
REMARK  129  A    between atoms: _319  and  _320
REMARK  130  A    between atoms: _322  and  _324
REMARK  131  A    between atoms: _324  and  _325
REMARK  132  A    between atoms: _328  and  _330
REMARK  133  A    between atoms: _330  and  _331
REMARK  134  A    between atoms: _330  and  _333
REMARK  135  A    between atoms: _333  and  _334
REMARK  136  A    between atoms: _339  and  _341
REMARK  137  A    between atoms: _341  and  _342
REMARK  138  A    between atoms: _345  and  _347
REMARK  139  A    between atoms: _347  and  _348
REMARK  140  A    between atoms: _351  and  _352
REMARK  141  A    between atoms: _357  and  _359
REMARK  142  A    between atoms: _359  and  _360
REMARK  143  A    between atoms: _359  and  _362
REMARK  144  A    between atoms: _362  and  _363
REMARK  145  A    between atoms: _366  and  _368
REMARK  146  A    between atoms: _368  and  _369
REMARK  147  A    between atoms: _368  and  _371
REMARK  148  A    between atoms: _371  and  _372
REMARK  149  A    between atoms: _382  and  _384
REMARK  150  A    between atoms: _384  and  _385
REMARK  151  A    between atoms: _384  and  _387
REMARK  152  A    between atoms: _387  and  _388
REMARK  153  A    between atoms: _394  and  _395
REMARK  154  A    between atoms: _400  and  _402
REMARK  155  A    between atoms: _402  and  _403
REMARK  156  A    between atoms: _402  and  _405
REMARK  157  A    between atoms: _405  and  _406
REMARK  158  A    between atoms: _409  and  _411
REMARK  159  A    between atoms: _411  and  _412
REMARK  160  A    between atoms: _411  and  _414
REMARK  161  A    between atoms: _414  and  _415
REMARK  162  A    between atoms: _417  and  _419
REMARK  163  A    between atoms: _419  and  _420
REMARK  164  A    between atoms: _419  and  _422
REMARK  165  A    between atoms: _422  and  _423
REMARK  166  A    between atoms: _428  and  _430
REMARK  167  A    between atoms: _430  and  _431
REMARK  168  A    between atoms: _430  and  _433
REMARK  169  A    between atoms: _436  and  _438
REMARK  170  A    between atoms: _438  and  _439
REMARK  171  A    between atoms: _438  and  _441
REMARK  172  A    between atoms: _441  and  _442
REMARK  173  A    between atoms: _442  and  _443
REMARK  174  A    between atoms: _449  and  _450
REMARK  175  A    between atoms: _455  and  _457
REMARK  176  A    between atoms: _457  and  _458
REMARK  177  A    between atoms: _457  and  _460
REMARK  178  A    between atoms: _460  and  _461
REMARK  179  A    between atoms: _464  and  _466
REMARK  180  A    between atoms: _466  and  _467
REMARK  181  A    between atoms: _466  and  _469
REMARK  182  A    between atoms: _469  and  _470
REMARK  183  A    between atoms: _473  and  _475
REMARK  184  A    between atoms: _475  and  _476
REMARK  185  A    between atoms: _475  and  _478
REMARK  186  A    between atoms: _478  and  _479
REMARK  187  A    between atoms: _481  and  _483
REMARK  188  A    between atoms: _483  and  _484
REMARK  189  A    between atoms: _483  and  _486
REMARK  190  A    between atoms: _486  and  _487
REMARK  191  A    between atoms: _492  and  _493
REMARK  192  A    between atoms: _495  and  _497
REMARK  193  A    between atoms: _497  and  _498
REMARK  194  A    between atoms: _497  and  _500
REMARK  195  A    between atoms: _500  and  _501
REMARK  196  A    between atoms: _506  and  _508
REMARK  197  A    between atoms: _508  and  _509
REMARK  198  A    between atoms: _508  and  _511
REMARK  199  A    between atoms: _511  and  _512
REMARK  200  A    between atoms: _515  and  _517
REMARK  201  A    between atoms: _517  and  _518
REMARK  202  A    between atoms: _517  and  _520
REMARK  203  A    between atoms: _520  and  _521
REMARK  204  A    between atoms: _531  and  _533
REMARK  205  A    between atoms: _533  and  _534
REMARK  206  A    between atoms: _536  and  _538
REMARK  207  A    between atoms: _538  and  _539
REMARK  208  A    between atoms: _538  and  _541
REMARK  209  A    between atoms: _541  and  _542
REMARK  210  A    between atoms: _547  and  _548
REMARK  211  A    between atoms: _550  and  _552
REMARK  212  A    between atoms: _552  and  _553
REMARK  213  A    between atoms: _552  and  _555
REMARK  214  A    between atoms: _555  and  _556
REMARK  215  A    between atoms: _556  and  _557
REMARK  216  A    between atoms: _557  and  _558
REMARK  217  A    between atoms: _567  and  _569
REMARK  218  A    between atoms: _569  and  _570
REMARK  219  A    between atoms: _569  and  _572
REMARK  220  A    between atoms: _572  and  _573
REMARK  221  A    between atoms: _573  and  _574
REMARK  222  A    between atoms: _574  and  _575
REMARK  223  A    between atoms: _575  and  _576
REMARK  224  A    between atoms: _580  and  _582
REMARK  225  A    between atoms: _582  and  _583
REMARK  226  A    between atoms: _585  and  _587
REMARK  227  A    between atoms: _587  and  _588
REMARK  228  A    between atoms: _591  and  _593
REMARK  229  A    between atoms: _593  and  _594
REMARK  230  A    between atoms: _593  and  _596
REMARK  231  A    between atoms: _596  and  _597
REMARK  232  A    between atoms: _602  and  _604
REMARK  233  A    between atoms: _604  and  _605
REMARK  234  A    between atoms: _608  and  _610
REMARK  235  A    between atoms: _610  and  _611
REMARK  236  A    between atoms: _614  and  _615
REMARK  237  A    between atoms: _620  and  _622
REMARK  238  A    between atoms: _622  and  _623
REMARK  239  A    between atoms: _622  and  _625
REMARK  240  A    between atoms: _625  and  _626
REMARK  241  A    between atoms: _629  and  _631
REMARK  242  A    between atoms: _631  and  _632
REMARK  243  A    between atoms: _631  and  _634
REMARK  244  A    between atoms: _634  and  _635
REMARK  245  A    between atoms: _645  and  _647
REMARK  246  A    between atoms: _647  and  _648
REMARK  247  A    between atoms: _647  and  _650
REMARK  248  A    between atoms: _650  and  _651
REMARK  249  A    between atoms: _657  and  _658
REMARK  250  A    between atoms: _663  and  _665
REMARK  251  A    between atoms: _665  and  _666
REMARK  252  A    between atoms: _665  and  _668
REMARK  253  A    between atoms: _668  and  _669
REMARK  254  A    between atoms: _672  and  _674
REMARK  255  A    between atoms: _674  and  _675
REMARK  256  A    between atoms: _674  and  _677
REMARK  257  A    between atoms: _677  and  _678
REMARK  258  A    between atoms: _678  and  _679
REMARK  259  A    between atoms: _682  and  _684
REMARK  260  A    between atoms: _684  and  _685
REMARK  261  A    between atoms: _684  and  _687
REMARK  262  A    between atoms: _687  and  _688
REMARK  263  A    between atoms: _688  and  _689
REMARK  264  A    between atoms: _689  and  _690
REMARK  265  A    between atoms: _690  and  _691
REMARK  266  A    between atoms: _695  and  _697
REMARK  267  A    between atoms: _697  and  _698
REMARK  268  A    between atoms: _700  and  _702
REMARK  269  A    between atoms: _702  and  _703
REMARK  270  A    between atoms: _702  and  _705
REMARK  271  A    between atoms: _705  and  _706
REMARK  272  A    between atoms: _711  and  _713
REMARK  273  A    between atoms: _713  and  _714
REMARK  274  A    between atoms: _713  and  _716
REMARK  275  A    between atoms: _716  and  _717
REMARK  276  A    between atoms: _717  and  _718
REMARK  277  A    between atoms: _718  and  _719
REMARK  278  A    between atoms: _728  and  _730
REMARK  279  A    between atoms: _730  and  _731
REMARK  280  A    between atoms: _730  and  _733
REMARK  281  A    between atoms: _733  and  _734
REMARK  282  A    between atoms: _737  and  _739
REMARK  283  A    between atoms: _739  and  _740
REMARK  284  A    between atoms: _739  and  _742
REMARK  285  A    between atoms: _745  and  _747
REMARK  286  A    between atoms: _747  and  _748
REMARK  287  A    between atoms: _747  and  _750
REMARK  288  A    between atoms: _750  and  _751
REMARK  289  A    between atoms: _751  and  _752
REMARK  290  A    between atoms: _758  and  _759
REMARK  291  A    between atoms: _764  and  _766
REMARK  292  A    between atoms: _766  and  _767
REMARK  293  A    between atoms: _766  and  _769
REMARK  294  A    between atoms: _769  and  _770
REMARK  295  A    between atoms: _773  and  _775
REMARK  296  A    between atoms: _775  and  _776
REMARK  297  A    between atoms: _775  and  _778
REMARK  298  A    between atoms: _778  and  _779
REMARK  299  A    between atoms: _782  and  _784
REMARK  300  A    between atoms: _784  and  _785
REMARK  301  A    between atoms: _784  and  _787
REMARK  302  A    between atoms: _787  and  _788
REMARK  303  A    between atoms: _790  and  _792
REMARK  304  A    between atoms: _792  and  _793
REMARK  305  A    between atoms: _792  and  _795
REMARK  306  A    between atoms: _795  and  _796
REMARK  307  A    between atoms: _796  and  _797
REMARK  308  A    between atoms: _797  and  _798
REMARK  309  A    between atoms: _807  and  _809
REMARK  310  A    between atoms: _809  and  _810
REMARK                            x       y       z     vdW  Elec       q    Type
REMARK                         _______ _______ _______ _____ _____    ______ ____
ROOT
ATOM      1  O   HOH     1     -33.468 -29.781 -10.131  0.00  0.00    +0.000 OA
ENDROOT
TORSDOF 0
REMARK  Name = ../refined-set-2016/3rt4/3rt4_pocket.pdb
REMARK  310 active torsions:
REMARK  status: ('A' for Active; 'I' for Inactive)
REMARK    1  A    between atoms: _1  and  _3
REMARK    2  A    between atoms: _3  and  _4
REMARK    3  A    between atoms: _3  and  _6
REMARK    4  A    between atoms: _6  and  _7
REMARK    5  A    between atoms: _7  and  _8
REMARK    6  A    between atoms: _8  and  _9
REMARK    7  A    between atoms: _18  and  _20
REMARK    8  A    between atoms: _20  and  _21
REMARK    9  A    between atoms: _20  and  _23
REMARK   10  A    between atoms: _26  and  _28
REMARK   11  A    between atoms: _28  and  _29
REMARK   12  A    between atoms: _28  and  _31
REMARK   13  A    between atoms: _31  and  _32
REMARK   14  A    between atoms: _32  and  _33
REMARK   15  A    between atoms: _33  and  _34
REMARK   16  A    between atoms: _43  and  _45
REMARK   17  A    between atoms: _45  and  _46
REMARK   18  A    between atoms: _45  and  _48
REMARK   19  A    between atoms: _48  and  _49
REMARK   20  A    between atoms: _51  and  _53
REMARK   21  A    between atoms: _53  and  _54
REMARK   22  A    between atoms: _53  and  _56
REMARK   23  A    between atoms: _56  and  _57
REMARK   24  A    between atoms: _62  and  _64
REMARK   25  A    between atoms: _64  and  _65
REMARK   26  A    between atoms: _64  and  _67
REMARK   27  A    between atoms: _67  and  _68
REMARK   28  A    between atoms: _73  and  _74
REMARK   29  A    between atoms: _76  and  _78
REMARK   30  A    between atoms: _78  and  _79
REMARK   31  A    between atoms: _78  and  _81
REMARK   32  A    between atoms: _81  and  _82
REMARK   33  A    between atoms: _82  and  _83
REMARK   34  A    between atoms: _86  and  _88
REMARK   35  A    between atoms: _88  and  _89
REMARK   36  A    between atoms: _88  and  _91
REMARK   37  A    between atoms: _91  and  _92
REMARK   38  A    between atoms: _92  and  _93
REMARK   39  A    between atoms: _93  and  _94
REMARK   40  A    between atoms: _94  and  _95
REMARK   41  A    between atoms: _99  and  _101
REMARK   42  A    between atoms: _101  and  _102
REMARK   43  A    between atoms: _101  and  _104
REMARK   44  A    between atoms: _104  and  _105
REMARK   45  A    between atoms: _110  and  _111
REMARK   46  A    between atoms: _113  and  _115
REMARK   47  A    between atoms: _115  and  _116
REMARK   48  A    between atoms: _115  and  _118
REMARK   49  A    between atoms: _118  and  _119
REMARK   50  A    between atoms: _119  and  _120
REMARK   51  A    between atoms: _120  and  _121
REMARK   52  A    between atoms: _130  and  _132
REMARK   53  A    between atoms: _132  and  _133
REMARK   54  A    between atoms: _136  and  _138
REMARK   55  A    between atoms: _138  and  _139
REMARK   56  A    between atoms: _138  and  _141
REMARK   57  A    between atoms: _141  and  _142
REMARK   58  A    between atoms: _142  and  _258
REMARK   59  A    between atoms: _143  and  _145
REMARK   60  A    between atoms: _145  and  _146
REMARK   61  A    between atoms: _145  and  _148
REMARK   62  A    between atoms: _148  and  _149
REMARK   63  A    between atoms: _149  and  _150
REMARK   64  A    between atoms: _153  and  _155
REMARK   65  A    between atoms: _155  and  _156
REMARK   66  A    between atoms: _155  and  _158
REMARK   67  A    between atoms: _158  and  _159
REMARK   68  A    between atoms: _161  and  _163
REMARK   69  A    between atoms: _163  and  _164
REMARK   70  A    between atoms: _163  and  _166
REMARK   71  A    between atoms: _166  and  _167
REMARK   72  A    between atoms: _172  and  _173
REMARK   73  A    between atoms: _175  and  _177
REMARK   74  A    between atoms: _177  and  _178
REMARK   75  A    between atoms: _177  and  _180
REMARK   76  A    between atoms: _180  and  _181
REMARK   77  A    between atoms: _186  and  _188
REMARK   78  A    between atoms: _188  and  _189
REMARK   79  A    between atoms: _188  and  _191
REMARK   80  A    between atoms: _194  and  _196
REMARK   81  A    between atoms: _196  and  _197
REMARK   82  A    between atoms: _196  and  _199
REMARK   83  A    between atoms: _199  and  _200
REMARK   84  A    between atoms: _200  and  _201
REMARK   85  A    between atoms: _201  and  _202
REMARK   86  A    between atoms: _211  and  _213
REMARK   87  A    between atoms: _213  and  _214
REMARK   88  A    between atoms: _213  and  _216
REMARK   89  A    between atoms: _216  and  _217
REMARK   90  A    between atoms: _222  and  _224
REMARK   91  A    between atoms: _224  and  _225
REMARK   92  A    between atoms: _224  and  _227
REMARK   93  A    between atoms: _227  and  _228
REMARK   94  A    between atoms: _231  and  _233
REMARK   95  A    between atoms: _233  and  _234
REMARK   96  A    between atoms: _236  and  _238
REMARK   97  A    between atoms: _238  and  _239
REMARK   98  A    between atoms: _238  and  _241
REMARK   99  A    between atoms: _241  and  _242
REMARK  100  A    between atoms: _252  and  _254
REMARK  101  A    between atoms: _254  and  _255
REMARK  102  A    between atoms: _254  and  _257
REMARK  103  A    between atoms: _257  and  _258
REMARK  104  A    between atoms: _259  and  _261
REMARK  105  A    between atoms: _261  and  _262
REMARK  106  A    between atoms: _261  and  _264
REMARK  107  A    between atoms: _264  and  _265
REMARK  108  A    between atoms: _268  and  _270
REMARK  109  A    between atoms: _270  and  _271
REMARK  110  A    between atoms: _273  and  _275
REMARK  111  A    between atoms: _275  and  _276
REMARK  112  A    between atoms: _275  and  _278
REMARK  113  A    between atoms: _278  and  _279
REMARK  114  A    between atoms: _284  and  _285
REMARK  115  A    between atoms: _287  and  _289
REMARK  116  A    between atoms: _289  and  _290
REMARK  117  A    between atoms: _289  and  _292
REMARK  118  A    between atoms: _292  and  _293
REMARK  119  A    between atoms: _293  and  _294
REMARK  120  A    between atoms: _294  and  _295
REMARK  121  A    between atoms: _304  and  _306
REMARK  122  A    between atoms: _306  and  _307
REMARK  123  A    between atoms: _306  and  _309
REMARK  124  A    between atoms: _309  and  _310
REMARK  125  A    between atoms: _310  and  _311
REMARK  126  A    between atoms: _311  and  _312
REMARK  127  A    between atoms: _312  and  _313
REMARK  128  A    between atoms: _317  and  _319
REMARK  129  A    between atoms: _319  and  _320
REMARK  130  A    between atoms: _322  and  _324
REMARK  131  A    between atoms: _324  and  _325
REMARK  132  A    between atoms: _328  and  _330
REMARK  133  A    between atoms: _330  and  _331
REMARK  134  A    between atoms: _330  and  _333
REMARK  135  A    between atoms: _333  and  _334
REMARK  136  A    between atoms: _339  and  _341
REMARK  137  A    between atoms: _341  and  _342
REMARK  138  A    between atoms: _345  and  _347
REMARK  139  A    between atoms: _347  and  _348
REMARK  140  A    between atoms: _351  and  _352
REMARK  141  A    between atoms: _357  and  _359
REMARK  142  A    between atoms: _359  and  _360
REMARK  143  A    between atoms: _359  and  _362
REMARK  144  A    between atoms: _362  and  _363
REMARK  145  A    between atoms: _366  and  _368
REMARK  146  A    between atoms: _368  and  _369
REMARK  147  A    between atoms: _368  and  _371
REMARK  148  A    between atoms: _371  and  _372
REMARK  149  A    between atoms: _382  and  _384
REMARK  150  A    between atoms: _384  and  _385
REMARK  151  A    between atoms: _384  and  _387
REMARK  152  A    between atoms: _387  and  _388
REMARK  153  A    between atoms: _394  and  _395
REMARK  154  A    between atoms: _400  and  _402
REMARK  155  A    between atoms: _402  and  _403
REMARK  156  A    between atoms: _402  and  _405
REMARK  157  A    between atoms: _405  and  _406
REMARK  158  A    between atoms: _409  and  _411
REMARK  159  A    between atoms: _411  and  _412
REMARK  160  A    between atoms: _411  and  _414
REMARK  161  A    between atoms: _414  and  _415
REMARK  162  A    between atoms: _417  and  _419
REMARK  163  A    between atoms: _419  and  _420
REMARK  164  A    between atoms: _419  and  _422
REMARK  165  A    between atoms: _422  and  _423
REMARK  166  A    between atoms: _428  and  _430
REMARK  167  A    between atoms: _430  and  _431
REMARK  168  A    between atoms: _430  and  _433
REMARK  169  A    between atoms: _436  and  _438
REMARK  170  A    between atoms: _438  and  _439
REMARK  171  A    between atoms: _438  and  _441
REMARK  172  A    between atoms: _441  and  _442
REMARK  173  A    between atoms: _442  and  _443
REMARK  174  A    between atoms: _449  and  _450
REMARK  175  A    between atoms: _455  and  _457
REMARK  176  A    between atoms: _457  and  _458
REMARK  177  A    between atoms: _457  and  _460
REMARK  178  A    between atoms: _460  and  _461
REMARK  179  A    between atoms: _464  and  _466
REMARK  180  A    between atoms: _466  and  _467
REMARK  181  A    between atoms: _466  and  _469
REMARK  182  A    between atoms: _469  and  _470
REMARK  183  A    between atoms: _473  and  _475
REMARK  184  A    between atoms: _475  and  _476
REMARK  185  A    between atoms: _475  and  _478
REMARK  186  A    between atoms: _478  and  _479
REMARK  187  A    between atoms: _481  and  _483
REMARK  188  A    between atoms: _483  and  _484
REMARK  189  A    between atoms: _483  and  _486
REMARK  190  A    between atoms: _486  and  _487
REMARK  191  A    between atoms: _492  and  _493
REMARK  192  A    between atoms: _495  and  _497
REMARK  193  A    between atoms: _497  and  _498
REMARK  194  A    between atoms: _497  and  _500
REMARK  195  A    between atoms: _500  and  _501
REMARK  196  A    between atoms: _506  and  _508
REMARK  197  A    between atoms: _508  and  _509
REMARK  198  A    between atoms: _508  and  _511
REMARK  199  A    between atoms: _511  and  _512
REMARK  200  A    between atoms: _515  and  _517
REMARK  201  A    between atoms: _517  and  _518
REMARK  202  A    between atoms: _517  and  _520
REMARK  203  A    between atoms: _520  and  _521
REMARK  204  A    between atoms: _531  and  _533
REMARK  205  A    between atoms: _533  and  _534
REMARK  206  A    between atoms: _536  and  _538
REMARK  207  A    between atoms: _538  and  _539
REMARK  208  A    between atoms: _538  and  _541
REMARK  209  A    between atoms: _541  and  _542
REMARK  210  A    between atoms: _547  and  _548
REMARK  211  A    between atoms: _550  and  _552
REMARK  212  A    between atoms: _552  and  _553
REMARK  213  A    between atoms: _552  and  _555
REMARK  214  A    between atoms: _555  and  _556
REMARK  215  A    between atoms: _556  and  _557
REMARK  216  A    between atoms: _557  and  _558
REMARK  217  A    between atoms: _567  and  _569
REMARK  218  A    between atoms: _569  and  _570
REMARK  219  A    between atoms: _569  and  _572
REMARK  220  A    between atoms: _572  and  _573
REMARK  221  A    between atoms: _573  and  _574
REMARK  222  A    between atoms: _574  and  _575
REMARK  223  A    between atoms: _575  and  _576
REMARK  224  A    between atoms: _580  and  _582
REMARK  225  A    between atoms: _582  and  _583
REMARK  226  A    between atoms: _585  and  _587
REMARK  227  A    between atoms: _587  and  _588
REMARK  228  A    between atoms: _591  and  _593
REMARK  229  A    between atoms: _593  and  _594
REMARK  230  A    between atoms: _593  and  _596
REMARK  231  A    between atoms: _596  and  _597
REMARK  232  A    between atoms: _602  and  _604
REMARK  233  A    between atoms: _604  and  _605
REMARK  234  A    between atoms: _608  and  _610
REMARK  235  A    between atoms: _610  and  _611
REMARK  236  A    between atoms: _614  and  _615
REMARK  237  A    between atoms: _620  and  _622
REMARK  238  A    between atoms: _622  and  _623
REMARK  239  A    between atoms: _622  and  _625
REMARK  240  A    between atoms: _625  and  _626
REMARK  241  A    between atoms: _629  and  _631
REMARK  242  A    between atoms: _631  and  _632
REMARK  243  A    between atoms: _631  and  _634
REMARK  244  A    between atoms: _634  and  _635
REMARK  245  A    between atoms: _645  and  _647
REMARK  246  A    between atoms: _647  and  _648
REMARK  247  A    between atoms: _647  and  _650
REMARK  248  A    between atoms: _650  and  _651
REMARK  249  A    between atoms: _657  and  _658
REMARK  250  A    between atoms: _663  and  _665
REMARK  251  A    between atoms: _665  and  _666
REMARK  252  A    between atoms: _665  and  _668
REMARK  253  A    between atoms: _668  and  _669
REMARK  254  A    between atoms: _672  and  _674
REMARK  255  A    between atoms: _674  and  _675
REMARK  256  A    between atoms: _674  and  _677
REMARK  257  A    between atoms: _677  and  _678
REMARK  258  A    between atoms: _678  and  _679
REMARK  259  A    between atoms: _682  and  _684
REMARK  260  A    between atoms: _684  and  _685
REMARK  261  A    between atoms: _684  and  _687
REMARK  262  A    between atoms: _687  and  _688
REMARK  263  A    between atoms: _688  and  _689
REMARK  264  A    between atoms: _689  and  _690
REMARK  265  A    between atoms: _690  and  _691
REMARK  266  A    between atoms: _695  and  _697
REMARK  267  A    between atoms: _697  and  _698
REMARK  268  A    between atoms: _700  and  _702
REMARK  269  A    between atoms: _702  and  _703
REMARK  270  A    between atoms: _702  and  _705
REMARK  271  A    between atoms: _705  and  _706
REMARK  272  A    between atoms: _711  and  _713
REMARK  273  A    between atoms: _713  and  _714
REMARK  274  A    between atoms: _713  and  _716
REMARK  275  A    between atoms: _716  and  _717
REMARK  276  A    between atoms: _717  and  _718
REMARK  277  A    between atoms: _718  and  _719
REMARK  278  A    between atoms: _728  and  _730
REMARK  279  A    between atoms: _730  and  _731
REMARK  280  A    between atoms: _730  and  _733
REMARK  281  A    between atoms: _733  and  _734
REMARK  282  A    between atoms: _737  and  _739
REMARK  283  A    between atoms: _739  and  _740
REMARK  284  A    between atoms: _739  and  _742
REMARK  285  A    between atoms: _745  and  _747
REMARK  286  A    between atoms: _747  and  _748
REMARK  287  A    between atoms: _747  and  _750
REMARK  288  A    between atoms: _750  and  _751
REMARK  289  A    between atoms: _751  and  _752
REMARK  290  A    between atoms: _758  and  _759
REMARK  291  A    between atoms: _764  and  _766
REMARK  292  A    between atoms: _766  and  _767
REMARK  293  A    between atoms: _766  and  _769
REMARK  294  A    between atoms: _769  and  _770
REMARK  295  A    between atoms: _773  and  _775
REMARK  296  A    between atoms: _775  and  _776
REMARK  297  A    between atoms: _775  and  _778
REMARK  298  A    between atoms: _778  and  _779
REMARK  299  A    between atoms: _782  and  _784
REMARK  300  A    between atoms: _784  and  _785
REMARK  301  A    between atoms: _784  and  _787
REMARK  302  A    between atoms: _787  and  _788
REMARK  303  A    between atoms: _790  and  _792
REMARK  304  A    between atoms: _792  and  _793
REMARK  305  A    between atoms: _792  and  _795
REMARK  306  A    between atoms: _795  and  _796
REMARK  307  A    between atoms: _796  and  _797
REMARK  308  A    between atoms: _797  and  _798
REMARK  309  A    between atoms: _807  and  _809
REMARK  310  A    between atoms: _809  and  _810
REMARK                            x       y       z     vdW  Elec       q    Type
REMARK                         _______ _______ _______ _____ _____    ______ ____
ROOT
ATOM      1  O   HOH     1     -22.648 -32.992 -20.561  0.00  0.00    +0.000 OA
ENDROOT
TORSDOF 0
REMARK  Name = ../refined-set-2016/3rt4/3rt4_pocket.pdb
REMARK  310 active torsions:
REMARK  status: ('A' for Active; 'I' for Inactive)
REMARK    1  A    between atoms: _1  and  _3
REMARK    2  A    between atoms: _3  and  _4
REMARK    3  A    between atoms: _3  and  _6
REMARK    4  A    between atoms: _6  and  _7
REMARK    5  A    between atoms: _7  and  _8
REMARK    6  A    between atoms: _8  and  _9
REMARK    7  A    between atoms: _18  and  _20
REMARK    8  A    between atoms: _20  and  _21
REMARK    9  A    between atoms: _20  and  _23
REMARK   10  A    between atoms: _26  and  _28
REMARK   11  A    between atoms: _28  and  _29
REMARK   12  A    between atoms: _28  and  _31
REMARK   13  A    between atoms: _31  and  _32
REMARK   14  A    between atoms: _32  and  _33
REMARK   15  A    between atoms: _33  and  _34
REMARK   16  A    between atoms: _43  and  _45
REMARK   17  A    between atoms: _45  and  _46
REMARK   18  A    between atoms: _45  and  _48
REMARK   19  A    between atoms: _48  and  _49
REMARK   20  A    between atoms: _51  and  _53
REMARK   21  A    between atoms: _53  and  _54
REMARK   22  A    between atoms: _53  and  _56
REMARK   23  A    between atoms: _56  and  _57
REMARK   24  A    between atoms: _62  and  _64
REMARK   25  A    between atoms: _64  and  _65
REMARK   26  A    between atoms: _64  and  _67
REMARK   27  A    between atoms: _67  and  _68
REMARK   28  A    between atoms: _73  and  _74
REMARK   29  A    between atoms: _76  and  _78
REMARK   30  A    between atoms: _78  and  _79
REMARK   31  A    between atoms: _78  and  _81
REMARK   32  A    between atoms: _81  and  _82
REMARK   33  A    between atoms: _82  and  _83
REMARK   34  A    between atoms: _86  and  _88
REMARK   35  A    between atoms: _88  and  _89
REMARK   36  A    between atoms: _88  and  _91
REMARK   37  A    between atoms: _91  and  _92
REMARK   38  A    between atoms: _92  and  _93
REMARK   39  A    between atoms: _93  and  _94
REMARK   40  A    between atoms: _94  and  _95
REMARK   41  A    between atoms: _99  and  _101
REMARK   42  A    between atoms: _101  and  _102
REMARK   43  A    between atoms: _101  and  _104
REMARK   44  A    between atoms: _104  and  _105
REMARK   45  A    between atoms: _110  and  _111
REMARK   46  A    between atoms: _113  and  _115
REMARK   47  A    between atoms: _115  and  _116
REMARK   48  A    between atoms: _115  and  _118
REMARK   49  A    between atoms: _118  and  _119
REMARK   50  A    between atoms: _119  and  _120
REMARK   51  A    between atoms: _120  and  _121
REMARK   52  A    between atoms: _130  and  _132
REMARK   53  A    between atoms: _132  and  _133
REMARK   54  A    between atoms: _136  and  _138
REMARK   55  A    between atoms: _138  and  _139
REMARK   56  A    between atoms: _138  and  _141
REMARK   57  A    between atoms: _141  and  _142
REMARK   58  A    between atoms: _142  and  _258
REMARK   59  A    between atoms: _143  and  _145
REMARK   60  A    between atoms: _145  and  _146
REMARK   61  A    between atoms: _145  and  _148
REMARK   62  A    between atoms: _148  and  _149
REMARK   63  A    between atoms: _149  and  _150
REMARK   64  A    between atoms: _153  and  _155
REMARK   65  A    between atoms: _155  and  _156
REMARK   66  A    between atoms: _155  and  _158
REMARK   67  A    between atoms: _158  and  _159
REMARK   68  A    between atoms: _161  and  _163
REMARK   69  A    between atoms: _163  and  _164
REMARK   70  A    between atoms: _163  and  _166
REMARK   71  A    between atoms: _166  and  _167
REMARK   72  A    between atoms: _172  and  _173
REMARK   73  A    between atoms: _175  and  _177
REMARK   74  A    between atoms: _177  and  _178
REMARK   75  A    between atoms: _177  and  _180
REMARK   76  A    between atoms: _180  and  _181
REMARK   77  A    between atoms: _186  and  _188
REMARK   78  A    between atoms: _188  and  _189
REMARK   79  A    between atoms: _188  and  _191
REMARK   80  A    between atoms: _194  and  _196
REMARK   81  A    between atoms: _196  and  _197
REMARK   82  A    between atoms: _196  and  _199
REMARK   83  A    between atoms: _199  and  _200
REMARK   84  A    between atoms: _200  and  _201
REMARK   85  A    between atoms: _201  and  _202
REMARK   86  A    between atoms: _211  and  _213
REMARK   87  A    between atoms: _213  and  _214
REMARK   88  A    between atoms: _213  and  _216
REMARK   89  A    between atoms: _216  and  _217
REMARK   90  A    between atoms: _222  and  _224
REMARK   91  A    between atoms: _224  and  _225
REMARK   92  A    between atoms: _224  and  _227
REMARK   93  A    between atoms: _227  and  _228
REMARK   94  A    between atoms: _231  and  _233
REMARK   95  A    between atoms: _233  and  _234
REMARK   96  A    between atoms: _236  and  _238
REMARK   97  A    between atoms: _238  and  _239
REMARK   98  A    between atoms: _238  and  _241
REMARK   99  A    between atoms: _241  and  _242
REMARK  100  A    between atoms: _252  and  _254
REMARK  101  A    between atoms: _254  and  _255
REMARK  102  A    between atoms: _254  and  _257
REMARK  103  A    between atoms: _257  and  _258
REMARK  104  A    between atoms: _259  and  _261
REMARK  105  A    between atoms: _261  and  _262
REMARK  106  A    between atoms: _261  and  _264
REMARK  107  A    between atoms: _264  and  _265
REMARK  108  A    between atoms: _268  and  _270
REMARK  109  A    between atoms: _270  and  _271
REMARK  110  A    between atoms: _273  and  _275
REMARK  111  A    between atoms: _275  and  _276
REMARK  112  A    between atoms: _275  and  _278
REMARK  113  A    between atoms: _278  and  _279
REMARK  114  A    between atoms: _284  and  _285
REMARK  115  A    between atoms: _287  and  _289
REMARK  116  A    between atoms: _289  and  _290
REMARK  117  A    between atoms: _289  and  _292
REMARK  118  A    between atoms: _292  and  _293
REMARK  119  A    between atoms: _293  and  _294
REMARK  120  A    between atoms: _294  and  _295
REMARK  121  A    between atoms: _304  and  _306
REMARK  122  A    between atoms: _306  and  _307
REMARK  123  A    between atoms: _306  and  _309
REMARK  124  A    between atoms: _309  and  _310
REMARK  125  A    between atoms: _310  and  _311
REMARK  126  A    between atoms: _311  and  _312
REMARK  127  A    between atoms: _312  and  _313
REMARK  128  A    between atoms: _317  and  _319
REMARK  129  A    between atoms: _319  and  _320
REMARK  130  A    between atoms: _322  and  _324
REMARK  131  A    between atoms: _324  and  _325
REMARK  132  A    between atoms: _328  and  _330
REMARK  133  A    between atoms: _330  and  _331
REMARK  134  A    between atoms: _330  and  _333
REMARK  135  A    between atoms: _333  and  _334
REMARK  136  A    between atoms: _339  and  _341
REMARK  137  A    between atoms: _341  and  _342
REMARK  138  A    between atoms: _345  and  _347
REMARK  139  A    between atoms: _347  and  _348
REMARK  140  A    between atoms: _351  and  _352
REMARK  141  A    between atoms: _357  and  _359
REMARK  142  A    between atoms: _359  and  _360
REMARK  143  A    between atoms: _359  and  _362
REMARK  144  A    between atoms: _362  and  _363
REMARK  145  A    between atoms: _366  and  _368
REMARK  146  A    between atoms: _368  and  _369
REMARK  147  A    between atoms: _368  and  _371
REMARK  148  A    between atoms: _371  and  _372
REMARK  149  A    between atoms: _382  and  _384
REMARK  150  A    between atoms: _384  and  _385
REMARK  151  A    between atoms: _384  and  _387
REMARK  152  A    between atoms: _387  and  _388
REMARK  153  A    between atoms: _394  and  _395
REMARK  154  A    between atoms: _400  and  _402
REMARK  155  A    between atoms: _402  and  _403
REMARK  156  A    between atoms: _402  and  _405
REMARK  157  A    between atoms: _405  and  _406
REMARK  158  A    between atoms: _409  and  _411
REMARK  159  A    between atoms: _411  and  _412
REMARK  160  A    between atoms: _411  and  _414
REMARK  161  A    between atoms: _414  and  _415
REMARK  162  A    between atoms: _417  and  _419
REMARK  163  A    between atoms: _419  and  _420
REMARK  164  A    between atoms: _419  and  _422
REMARK  165  A    between atoms: _422  and  _423
REMARK  166  A    between atoms: _428  and  _430
REMARK  167  A    between atoms: _430  and  _431
REMARK  168  A    between atoms: _430  and  _433
REMARK  169  A    between atoms: _436  and  _438
REMARK  170  A    between atoms: _438  and  _439
REMARK  171  A    between atoms: _438  and  _441
REMARK  172  A    between atoms: _441  and  _442
REMARK  173  A    between atoms: _442  and  _443
REMARK  174  A    between atoms: _449  and  _450
REMARK  175  A    between atoms: _455  and  _457
REMARK  176  A    between atoms: _457  and  _458
REMARK  177  A    between atoms: _457  and  _460
REMARK  178  A    between atoms: _460  and  _461
REMARK  179  A    between atoms: _464  and  _466
REMARK  180  A    between atoms: _466  and  _467
REMARK  181  A    between atoms: _466  and  _469
REMARK  182  A    between atoms: _469  and  _470
REMARK  183  A    between atoms: _473  and  _475
REMARK  184  A    between atoms: _475  and  _476
REMARK  185  A    between atoms: _475  and  _478
REMARK  186  A    between atoms: _478  and  _479
REMARK  187  A    between atoms: _481  and  _483
REMARK  188  A    between atoms: _483  and  _484
REMARK  189  A    between atoms: _483  and  _486
REMARK  190  A    between atoms: _486  and  _487
REMARK  191  A    between atoms: _492  and  _493
REMARK  192  A    between atoms: _495  and  _497
REMARK  193  A    between atoms: _497  and  _498
REMARK  194  A    between atoms: _497  and  _500
REMARK  195  A    between atoms: _500  and  _501
REMARK  196  A    between atoms: _506  and  _508
REMARK  197  A    between atoms: _508  and  _509
REMARK  198  A    between atoms: _508  and  _511
REMARK  199  A    between atoms: _511  and  _512
REMARK  200  A    between atoms: _515  and  _517
REMARK  201  A    between atoms: _517  and  _518
REMARK  202  A    between atoms: _517  and  _520
REMARK  203  A    between atoms: _520  and  _521
REMARK  204  A    between atoms: _531  and  _533
REMARK  205  A    between atoms: _533  and  _534
REMARK  206  A    between atoms: _536  and  _538
REMARK  207  A    between atoms: _538  and  _539
REMARK  208  A    between atoms: _538  and  _541
REMARK  209  A    between atoms: _541  and  _542
REMARK  210  A    between atoms: _547  and  _548
REMARK  211  A    between atoms: _550  and  _552
REMARK  212  A    between atoms: _552  and  _553
REMARK  213  A    between atoms: _552  and  _555
REMARK  214  A    between atoms: _555  and  _556
REMARK  215  A    between atoms: _556  and  _557
REMARK  216  A    between atoms: _557  and  _558
REMARK  217  A    between atoms: _567  and  _569
REMARK  218  A    between atoms: _569  and  _570
REMARK  219  A    between atoms: _569  and  _572
REMARK  220  A    between atoms: _572  and  _573
REMARK  221  A    between atoms: _573  and  _574
REMARK  222  A    between atoms: _574  and  _575
REMARK  223  A    between atoms: _575  and  _576
REMARK  224  A    between atoms: _580  and  _582
REMARK  225  A    between atoms: _582  and  _583
REMARK  226  A    between atoms: _585  and  _587
REMARK  227  A    between atoms: _587  and  _588
REMARK  228  A    between atoms: _591  and  _593
REMARK  229  A    between atoms: _593  and  _594
REMARK  230  A    between atoms: _593  and  _596
REMARK  231  A    between atoms: _596  and  _597
REMARK  232  A    between atoms: _602  and  _604
REMARK  233  A    between atoms: _604  and  _605
REMARK  234  A    between atoms: _608  and  _610
REMARK  235  A    between atoms: _610  and  _611
REMARK  236  A    between atoms: _614  and  _615
REMARK  237  A    between atoms: _620  and  _622
REMARK  238  A    between atoms: _622  and  _623
REMARK  239  A    between atoms: _622  and  _625
REMARK  240  A    between atoms: _625  and  _626
REMARK  241  A    between atoms: _629  and  _631
REMARK  242  A    between atoms: _631  and  _632
REMARK  243  A    between atoms: _631  and  _634
REMARK  244  A    between atoms: _634  and  _635
REMARK  245  A    between atoms: _645  and  _647
REMARK  246  A    between atoms: _647  and  _648
REMARK  247  A    between atoms: _647  and  _650
REMARK  248  A    between atoms: _650  and  _651
REMARK  249  A    between atoms: _657  and  _658
REMARK  250  A    between atoms: _663  and  _665
REMARK  251  A    between atoms: _665  and  _666
REMARK  252  A    between atoms: _665  and  _668
REMARK  253  A    between atoms: _668  and  _669
REMARK  254  A    between atoms: _672  and  _674
REMARK  255  A    between atoms: _674  and  _675
REMARK  256  A    between atoms: _674  and  _677
REMARK  257  A    between atoms: _677  and  _678
REMARK  258  A    between atoms: _678  and  _679
REMARK  259  A    between atoms: _682  and  _684
REMARK  260  A    between atoms: _684  and  _685
REMARK  261  A    between atoms: _684  and  _687
REMARK  262  A    between atoms: _687  and  _688
REMARK  263  A    between atoms: _688  and  _689
REMARK  264  A    between atoms: _689  and  _690
REMARK  265  A    between atoms: _690  and  _691
REMARK  266  A    between atoms: _695  and  _697
REMARK  267  A    between atoms: _697  and  _698
REMARK  268  A    between atoms: _700  and  _702
REMARK  269  A    between atoms: _702  and  _703
REMARK  270  A    between atoms: _702  and  _705
REMARK  271  A    between atoms: _705  and  _706
REMARK  272  A    between atoms: _711  and  _713
REMARK  273  A    between atoms: _713  and  _714
REMARK  274  A    between atoms: _713  and  _716
REMARK  275  A    between atoms: _716  and  _717
REMARK  276  A    between atoms: _717  and  _718
REMARK  277  A    between atoms: _718  and  _719
REMARK  278  A    between atoms: _728  and  _730
REMARK  279  A    between atoms: _730  and  _731
REMARK  280  A    between atoms: _730  and  _733
REMARK  281  A    between atoms: _733  and  _734
REMARK  282  A    between atoms: _737  and  _739
REMARK  283  A    between atoms: _739  and  _740
REMARK  284  A    between atoms: _739  and  _742
REMARK  285  A    between atoms: _745  and  _747
REMARK  286  A    between atoms: _747  and  _748
REMARK  287  A    between atoms: _747  and  _750
REMARK  288  A    between atoms: _750  and  _751
REMARK  289  A    between atoms: _751  and  _752
REMARK  290  A    between atoms: _758  and  _759
REMARK  291  A    between atoms: _764  and  _766
REMARK  292  A    between atoms: _766  and  _767
REMARK  293  A    between atoms: _766  and  _769
REMARK  294  A    between atoms: _769  and  _770
REMARK  295  A    between atoms: _773  and  _775
REMARK  296  A    between atoms: _775  and  _776
REMARK  297  A    between atoms: _775  and  _778
REMARK  298  A    between atoms: _778  and  _779
REMARK  299  A    between atoms: _782  and  _784
REMARK  300  A    between atoms: _784  and  _785
REMARK  301  A    between atoms: _784  and  _787
REMARK  302  A    between atoms: _787  and  _788
REMARK  303  A    between atoms: _790  and  _792
REMARK  304  A    between atoms: _792  and  _793
REMARK  305  A    between atoms: _792  and  _795
REMARK  306  A    between atoms: _795  and  _796
REMARK  307  A    between atoms: _796  and  _797
REMARK  308  A    between atoms: _797  and  _798
REMARK  309  A    between atoms: _807  and  _809
REMARK  310  A    between atoms: _809  and  _810
REMARK                            x       y       z     vdW  Elec       q    Type
REMARK                         _______ _______ _______ _____ _____    ______ ____
ROOT
ATOM      1  O   HOH     1     -22.842 -35.722 -24.073  0.00  0.00    +0.000 OA
ENDROOT
TORSDOF 0
REMARK  Name = ../refined-set-2016/3rt4/3rt4_pocket.pdb
REMARK  310 active torsions:
REMARK  status: ('A' for Active; 'I' for Inactive)
REMARK    1  A    between atoms: _1  and  _3
REMARK    2  A    between atoms: _3  and  _4
REMARK    3  A    between atoms: _3  and  _6
REMARK    4  A    between atoms: _6  and  _7
REMARK    5  A    between atoms: _7  and  _8
REMARK    6  A    between atoms: _8  and  _9
REMARK    7  A    between atoms: _18  and  _20
REMARK    8  A    between atoms: _20  and  _21
REMARK    9  A    between atoms: _20  and  _23
REMARK   10  A    between atoms: _26  and  _28
REMARK   11  A    between atoms: _28  and  _29
REMARK   12  A    between atoms: _28  and  _31
REMARK   13  A    between atoms: _31  and  _32
REMARK   14  A    between atoms: _32  and  _33
REMARK   15  A    between atoms: _33  and  _34
REMARK   16  A    between atoms: _43  and  _45
REMARK   17  A    between atoms: _45  and  _46
REMARK   18  A    between atoms: _45  and  _48
REMARK   19  A    between atoms: _48  and  _49
REMARK   20  A    between atoms: _51  and  _53
REMARK   21  A    between atoms: _53  and  _54
REMARK   22  A    between atoms: _53  and  _56
REMARK   23  A    between atoms: _56  and  _57
REMARK   24  A    between atoms: _62  and  _64
REMARK   25  A    between atoms: _64  and  _65
REMARK   26  A    between atoms: _64  and  _67
REMARK   27  A    between atoms: _67  and  _68
REMARK   28  A    between atoms: _73  and  _74
REMARK   29  A    between atoms: _76  and  _78
REMARK   30  A    between atoms: _78  and  _79
REMARK   31  A    between atoms: _78  and  _81
REMARK   32  A    between atoms: _81  and  _82
REMARK   33  A    between atoms: _82  and  _83
REMARK   34  A    between atoms: _86  and  _88
REMARK   35  A    between atoms: _88  and  _89
REMARK   36  A    between atoms: _88  and  _91
REMARK   37  A    between atoms: _91  and  _92
REMARK   38  A    between atoms: _92  and  _93
REMARK   39  A    between atoms: _93  and  _94
REMARK   40  A    between atoms: _94  and  _95
REMARK   41  A    between atoms: _99  and  _101
REMARK   42  A    between atoms: _101  and  _102
REMARK   43  A    between atoms: _101  and  _104
REMARK   44  A    between atoms: _104  and  _105
REMARK   45  A    between atoms: _110  and  _111
REMARK   46  A    between atoms: _113  and  _115
REMARK   47  A    between atoms: _115  and  _116
REMARK   48  A    between atoms: _115  and  _118
REMARK   49  A    between atoms: _118  and  _119
REMARK   50  A    between atoms: _119  and  _120
REMARK   51  A    between atoms: _120  and  _121
REMARK   52  A    between atoms: _130  and  _132
REMARK   53  A    between atoms: _132  and  _133
REMARK   54  A    between atoms: _136  and  _138
REMARK   55  A    between atoms: _138  and  _139
REMARK   56  A    between atoms: _138  and  _141
REMARK   57  A    between atoms: _141  and  _142
REMARK   58  A    between atoms: _142  and  _258
REMARK   59  A    between atoms: _143  and  _145
REMARK   60  A    between atoms: _145  and  _146
REMARK   61  A    between atoms: _145  and  _148
REMARK   62  A    between atoms: _148  and  _149
REMARK   63  A    between atoms: _149  and  _150
REMARK   64  A    between atoms: _153  and  _155
REMARK   65  A    between atoms: _155  and  _156
REMARK   66  A    between atoms: _155  and  _158
REMARK   67  A    between atoms: _158  and  _159
REMARK   68  A    between atoms: _161  and  _163
REMARK   69  A    between atoms: _163  and  _164
REMARK   70  A    between atoms: _163  and  _166
REMARK   71  A    between atoms: _166  and  _167
REMARK   72  A    between atoms: _172  and  _173
REMARK   73  A    between atoms: _175  and  _177
REMARK   74  A    between atoms: _177  and  _178
REMARK   75  A    between atoms: _177  and  _180
REMARK   76  A    between atoms: _180  and  _181
REMARK   77  A    between atoms: _186  and  _188
REMARK   78  A    between atoms: _188  and  _189
REMARK   79  A    between atoms: _188  and  _191
REMARK   80  A    between atoms: _194  and  _196
REMARK   81  A    between atoms: _196  and  _197
REMARK   82  A    between atoms: _196  and  _199
REMARK   83  A    between atoms: _199  and  _200
REMARK   84  A    between atoms: _200  and  _201
REMARK   85  A    between atoms: _201  and  _202
REMARK   86  A    between atoms: _211  and  _213
REMARK   87  A    between atoms: _213  and  _214
REMARK   88  A    between atoms: _213  and  _216
REMARK   89  A    between atoms: _216  and  _217
REMARK   90  A    between atoms: _222  and  _224
REMARK   91  A    between atoms: _224  and  _225
REMARK   92  A    between atoms: _224  and  _227
REMARK   93  A    between atoms: _227  and  _228
REMARK   94  A    between atoms: _231  and  _233
REMARK   95  A    between atoms: _233  and  _234
REMARK   96  A    between atoms: _236  and  _238
REMARK   97  A    between atoms: _238  and  _239
REMARK   98  A    between atoms: _238  and  _241
REMARK   99  A    between atoms: _241  and  _242
REMARK  100  A    between atoms: _252  and  _254
REMARK  101  A    between atoms: _254  and  _255
REMARK  102  A    between atoms: _254  and  _257
REMARK  103  A    between atoms: _257  and  _258
REMARK  104  A    between atoms: _259  and  _261
REMARK  105  A    between atoms: _261  and  _262
REMARK  106  A    between atoms: _261  and  _264
REMARK  107  A    between atoms: _264  and  _265
REMARK  108  A    between atoms: _268  and  _270
REMARK  109  A    between atoms: _270  and  _271
REMARK  110  A    between atoms: _273  and  _275
REMARK  111  A    between atoms: _275  and  _276
REMARK  112  A    between atoms: _275  and  _278
REMARK  113  A    between atoms: _278  and  _279
REMARK  114  A    between atoms: _284  and  _285
REMARK  115  A    between atoms: _287  and  _289
REMARK  116  A    between atoms: _289  and  _290
REMARK  117  A    between atoms: _289  and  _292
REMARK  118  A    between atoms: _292  and  _293
REMARK  119  A    between atoms: _293  and  _294
REMARK  120  A    between atoms: _294  and  _295
REMARK  121  A    between atoms: _304  and  _306
REMARK  122  A    between atoms: _306  and  _307
REMARK  123  A    between atoms: _306  and  _309
REMARK  124  A    between atoms: _309  and  _310
REMARK  125  A    between atoms: _310  and  _311
REMARK  126  A    between atoms: _311  and  _312
REMARK  127  A    between atoms: _312  and  _313
REMARK  128  A    between atoms: _317  and  _319
REMARK  129  A    between atoms: _319  and  _320
REMARK  130  A    between atoms: _322  and  _324
REMARK  131  A    between atoms: _324  and  _325
REMARK  132  A    between atoms: _328  and  _330
REMARK  133  A    between atoms: _330  and  _331
REMARK  134  A    between atoms: _330  and  _333
REMARK  135  A    between atoms: _333  and  _334
REMARK  136  A    between atoms: _339  and  _341
REMARK  137  A    between atoms: _341  and  _342
REMARK  138  A    between atoms: _345  and  _347
REMARK  139  A    between atoms: _347  and  _348
REMARK  140  A    between atoms: _351  and  _352
REMARK  141  A    between atoms: _357  and  _359
REMARK  142  A    between atoms: _359  and  _360
REMARK  143  A    between atoms: _359  and  _362
REMARK  144  A    between atoms: _362  and  _363
REMARK  145  A    between atoms: _366  and  _368
REMARK  146  A    between atoms: _368  and  _369
REMARK  147  A    between atoms: _368  and  _371
REMARK  148  A    between atoms: _371  and  _372
REMARK  149  A    between atoms: _382  and  _384
REMARK  150  A    between atoms: _384  and  _385
REMARK  151  A    between atoms: _384  and  _387
REMARK  152  A    between atoms: _387  and  _388
REMARK  153  A    between atoms: _394  and  _395
REMARK  154  A    between atoms: _400  and  _402
REMARK  155  A    between atoms: _402  and  _403
REMARK  156  A    between atoms: _402  and  _405
REMARK  157  A    between atoms: _405  and  _406
REMARK  158  A    between atoms: _409  and  _411
REMARK  159  A    between atoms: _411  and  _412
REMARK  160  A    between atoms: _411  and  _414
REMARK  161  A    between atoms: _414  and  _415
REMARK  162  A    between atoms: _417  and  _419
REMARK  163  A    between atoms: _419  and  _420
REMARK  164  A    between atoms: _419  and  _422
REMARK  165  A    between atoms: _422  and  _423
REMARK  166  A    between atoms: _428  and  _430
REMARK  167  A    between atoms: _430  and  _431
REMARK  168  A    between atoms: _430  and  _433
REMARK  169  A    between atoms: _436  and  _438
REMARK  170  A    between atoms: _438  and  _439
REMARK  171  A    between atoms: _438  and  _441
REMARK  172  A    between atoms: _441  and  _442
REMARK  173  A    between atoms: _442  and  _443
REMARK  174  A    between atoms: _449  and  _450
REMARK  175  A    between atoms: _455  and  _457
REMARK  176  A    between atoms: _457  and  _458
REMARK  177  A    between atoms: _457  and  _460
REMARK  178  A    between atoms: _460  and  _461
REMARK  179  A    between atoms: _464  and  _466
REMARK  180  A    between atoms: _466  and  _467
REMARK  181  A    between atoms: _466  and  _469
REMARK  182  A    between atoms: _469  and  _470
REMARK  183  A    between atoms: _473  and  _475
REMARK  184  A    between atoms: _475  and  _476
REMARK  185  A    between atoms: _475  and  _478
REMARK  186  A    between atoms: _478  and  _479
REMARK  187  A    between atoms: _481  and  _483
REMARK  188  A    between atoms: _483  and  _484
REMARK  189  A    between atoms: _483  and  _486
REMARK  190  A    between atoms: _486  and  _487
REMARK  191  A    between atoms: _492  and  _493
REMARK  192  A    between atoms: _495  and  _497
REMARK  193  A    between atoms: _497  and  _498
REMARK  194  A    between atoms: _497  and  _500
REMARK  195  A    between atoms: _500  and  _501
REMARK  196  A    between atoms: _506  and  _508
REMARK  197  A    between atoms: _508  and  _509
REMARK  198  A    between atoms: _508  and  _511
REMARK  199  A    between atoms: _511  and  _512
REMARK  200  A    between atoms: _515  and  _517
REMARK  201  A    between atoms: _517  and  _518
REMARK  202  A    between atoms: _517  and  _520
REMARK  203  A    between atoms: _520  and  _521
REMARK  204  A    between atoms: _531  and  _533
REMARK  205  A    between atoms: _533  and  _534
REMARK  206  A    between atoms: _536  and  _538
REMARK  207  A    between atoms: _538  and  _539
REMARK  208  A    between atoms: _538  and  _541
REMARK  209  A    between atoms: _541  and  _542
REMARK  210  A    between atoms: _547  and  _548
REMARK  211  A    between atoms: _550  and  _552
REMARK  212  A    between atoms: _552  and  _553
REMARK  213  A    between atoms: _552  and  _555
REMARK  214  A    between atoms: _555  and  _556
REMARK  215  A    between atoms: _556  and  _557
REMARK  216  A    between atoms: _557  and  _558
REMARK  217  A    between atoms: _567  and  _569
REMARK  218  A    between atoms: _569  and  _570
REMARK  219  A    between atoms: _569  and  _572
REMARK  220  A    between atoms: _572  and  _573
REMARK  221  A    between atoms: _573  and  _574
REMARK  222  A    between atoms: _574  and  _575
REMARK  223  A    between atoms: _575  and  _576
REMARK  224  A    between atoms: _580  and  _582
REMARK  225  A    between atoms: _582  and  _583
REMARK  226  A    between atoms: _585  and  _587
REMARK  227  A    between atoms: _587  and  _588
REMARK  228  A    between atoms: _591  and  _593
REMARK  229  A    between atoms: _593  and  _594
REMARK  230  A    between atoms: _593  and  _596
REMARK  231  A    between atoms: _596  and  _597
REMARK  232  A    between atoms: _602  and  _604
REMARK  233  A    between atoms: _604  and  _605
REMARK  234  A    between atoms: _608  and  _610
REMARK  235  A    between atoms: _610  and  _611
REMARK  236  A    between atoms: _614  and  _615
REMARK  237  A    between atoms: _620  and  _622
REMARK  238  A    between atoms: _622  and  _623
REMARK  239  A    between atoms: _622  and  _625
REMARK  240  A    between atoms: _625  and  _626
REMARK  241  A    between atoms: _629  and  _631
REMARK  242  A    between atoms: _631  and  _632
REMARK  243  A    between atoms: _631  and  _634
REMARK  244  A    between atoms: _634  and  _635
REMARK  245  A    between atoms: _645  and  _647
REMARK  246  A    between atoms: _647  and  _648
REMARK  247  A    between atoms: _647  and  _650
REMARK  248  A    between atoms: _650  and  _651
REMARK  249  A    between atoms: _657  and  _658
REMARK  250  A    between atoms: _663  and  _665
REMARK  251  A    between atoms: _665  and  _666
REMARK  252  A    between atoms: _665  and  _668
REMARK  253  A    between atoms: _668  and  _669
REMARK  254  A    between atoms: _672  and  _674
REMARK  255  A    between atoms: _674  and  _675
REMARK  256  A    between atoms: _674  and  _677
REMARK  257  A    between atoms: _677  and  _678
REMARK  258  A    between atoms: _678  and  _679
REMARK  259  A    between atoms: _682  and  _684
REMARK  260  A    between atoms: _684  and  _685
REMARK  261  A    between atoms: _684  and  _687
REMARK  262  A    between atoms: _687  and  _688
REMARK  263  A    between atoms: _688  and  _689
REMARK  264  A    between atoms: _689  and  _690
REMARK  265  A    between atoms: _690  and  _691
REMARK  266  A    between atoms: _695  and  _697
REMARK  267  A    between atoms: _697  and  _698
REMARK  268  A    between atoms: _700  and  _702
REMARK  269  A    between atoms: _702  and  _703
REMARK  270  A    between atoms: _702  and  _705
REMARK  271  A    between atoms: _705  and  _706
REMARK  272  A    between atoms: _711  and  _713
REMARK  273  A    between atoms: _713  and  _714
REMARK  274  A    between atoms: _713  and  _716
REMARK  275  A    between atoms: _716  and  _717
REMARK  276  A    between atoms: _717  and  _718
REMARK  277  A    between atoms: _718  and  _719
REMARK  278  A    between atoms: _728  and  _730
REMARK  279  A    between atoms: _730  and  _731
REMARK  280  A    between atoms: _730  and  _733
REMARK  281  A    between atoms: _733  and  _734
REMARK  282  A    between atoms: _737  and  _739
REMARK  283  A    between atoms: _739  and  _740
REMARK  284  A    between atoms: _739  and  _742
REMARK  285  A    between atoms: _745  and  _747
REMARK  286  A    between atoms: _747  and  _748
REMARK  287  A    between atoms: _747  and  _750
REMARK  288  A    between atoms: _750  and  _751
REMARK  289  A    between atoms: _751  and  _752
REMARK  290  A    between atoms: _758  and  _759
REMARK  291  A    between atoms: _764  and  _766
REMARK  292  A    between atoms: _766  and  _767
REMARK  293  A    between atoms: _766  and  _769
REMARK  294  A    between atoms: _769  and  _770
REMARK  295  A    between atoms: _773  and  _775
REMARK  296  A    between atoms: _775  and  _776
REMARK  297  A    between atoms: _775  and  _778
REMARK  298  A    between atoms: _778  and  _779
REMARK  299  A    between atoms: _782  and  _784
REMARK  300  A    between atoms: _784  and  _785
REMARK  301  A    between atoms: _784  and  _787
REMARK  302  A    between atoms: _787  and  _788
REMARK  303  A    between atoms: _790  and  _792
REMARK  304  A    between atoms: _792  and  _793
REMARK  305  A    between atoms: _792  and  _795
REMARK  306  A    between atoms: _795  and  _796
REMARK  307  A    between atoms: _796  and  _797
REMARK  308  A    between atoms: _797  and  _798
REMARK  309  A    between atoms: _807  and  _809
REMARK  310  A    between atoms: _809  and  _810
REMARK                            x       y       z     vdW  Elec       q    Type
REMARK                         _______ _______ _______ _____ _____    ______ ____
ROOT
ATOM      1  O   HOH     1     -21.862 -37.877 -25.841  0.00  0.00    +0.000 OA
ENDROOT
TORSDOF 0
REMARK  Name = ../refined-set-2016/3rt4/3rt4_pocket.pdb
REMARK  310 active torsions:
REMARK  status: ('A' for Active; 'I' for Inactive)
REMARK    1  A    between atoms: _1  and  _3
REMARK    2  A    between atoms: _3  and  _4
REMARK    3  A    between atoms: _3  and  _6
REMARK    4  A    between atoms: _6  and  _7
REMARK    5  A    between atoms: _7  and  _8
REMARK    6  A    between atoms: _8  and  _9
REMARK    7  A    between atoms: _18  and  _20
REMARK    8  A    between atoms: _20  and  _21
REMARK    9  A    between atoms: _20  and  _23
REMARK   10  A    between atoms: _26  and  _28
REMARK   11  A    between atoms: _28  and  _29
REMARK   12  A    between atoms: _28  and  _31
REMARK   13  A    between atoms: _31  and  _32
REMARK   14  A    between atoms: _32  and  _33
REMARK   15  A    between atoms: _33  and  _34
REMARK   16  A    between atoms: _43  and  _45
REMARK   17  A    between atoms: _45  and  _46
REMARK   18  A    between atoms: _45  and  _48
REMARK   19  A    between atoms: _48  and  _49
REMARK   20  A    between atoms: _51  and  _53
REMARK   21  A    between atoms: _53  and  _54
REMARK   22  A    between atoms: _53  and  _56
REMARK   23  A    between atoms: _56  and  _57
REMARK   24  A    between atoms: _62  and  _64
REMARK   25  A    between atoms: _64  and  _65
REMARK   26  A    between atoms: _64  and  _67
REMARK   27  A    between atoms: _67  and  _68
REMARK   28  A    between atoms: _73  and  _74
REMARK   29  A    between atoms: _76  and  _78
REMARK   30  A    between atoms: _78  and  _79
REMARK   31  A    between atoms: _78  and  _81
REMARK   32  A    between atoms: _81  and  _82
REMARK   33  A    between atoms: _82  and  _83
REMARK   34  A    between atoms: _86  and  _88
REMARK   35  A    between atoms: _88  and  _89
REMARK   36  A    between atoms: _88  and  _91
REMARK   37  A    between atoms: _91  and  _92
REMARK   38  A    between atoms: _92  and  _93
REMARK   39  A    between atoms: _93  and  _94
REMARK   40  A    between atoms: _94  and  _95
REMARK   41  A    between atoms: _99  and  _101
REMARK   42  A    between atoms: _101  and  _102
REMARK   43  A    between atoms: _101  and  _104
REMARK   44  A    between atoms: _104  and  _105
REMARK   45  A    between atoms: _110  and  _111
REMARK   46  A    between atoms: _113  and  _115
REMARK   47  A    between atoms: _115  and  _116
REMARK   48  A    between atoms: _115  and  _118
REMARK   49  A    between atoms: _118  and  _119
REMARK   50  A    between atoms: _119  and  _120
REMARK   51  A    between atoms: _120  and  _121
REMARK   52  A    between atoms: _130  and  _132
REMARK   53  A    between atoms: _132  and  _133
REMARK   54  A    between atoms: _136  and  _138
REMARK   55  A    between atoms: _138  and  _139
REMARK   56  A    between atoms: _138  and  _141
REMARK   57  A    between atoms: _141  and  _142
REMARK   58  A    between atoms: _142  and  _258
REMARK   59  A    between atoms: _143  and  _145
REMARK   60  A    between atoms: _145  and  _146
REMARK   61  A    between atoms: _145  and  _148
REMARK   62  A    between atoms: _148  and  _149
REMARK   63  A    between atoms: _149  and  _150
REMARK   64  A    between atoms: _153  and  _155
REMARK   65  A    between atoms: _155  and  _156
REMARK   66  A    between atoms: _155  and  _158
REMARK   67  A    between atoms: _158  and  _159
REMARK   68  A    between atoms: _161  and  _163
REMARK   69  A    between atoms: _163  and  _164
REMARK   70  A    between atoms: _163  and  _166
REMARK   71  A    between atoms: _166  and  _167
REMARK   72  A    between atoms: _172  and  _173
REMARK   73  A    between atoms: _175  and  _177
REMARK   74  A    between atoms: _177  and  _178
REMARK   75  A    between atoms: _177  and  _180
REMARK   76  A    between atoms: _180  and  _181
REMARK   77  A    between atoms: _186  and  _188
REMARK   78  A    between atoms: _188  and  _189
REMARK   79  A    between atoms: _188  and  _191
REMARK   80  A    between atoms: _194  and  _196
REMARK   81  A    between atoms: _196  and  _197
REMARK   82  A    between atoms: _196  and  _199
REMARK   83  A    between atoms: _199  and  _200
REMARK   84  A    between atoms: _200  and  _201
REMARK   85  A    between atoms: _201  and  _202
REMARK   86  A    between atoms: _211  and  _213
REMARK   87  A    between atoms: _213  and  _214
REMARK   88  A    between atoms: _213  and  _216
REMARK   89  A    between atoms: _216  and  _217
REMARK   90  A    between atoms: _222  and  _224
REMARK   91  A    between atoms: _224  and  _225
REMARK   92  A    between atoms: _224  and  _227
REMARK   93  A    between atoms: _227  and  _228
REMARK   94  A    between atoms: _231  and  _233
REMARK   95  A    between atoms: _233  and  _234
REMARK   96  A    between atoms: _236  and  _238
REMARK   97  A    between atoms: _238  and  _239
REMARK   98  A    between atoms: _238  and  _241
REMARK   99  A    between atoms: _241  and  _242
REMARK  100  A    between atoms: _252  and  _254
REMARK  101  A    between atoms: _254  and  _255
REMARK  102  A    between atoms: _254  and  _257
REMARK  103  A    between atoms: _257  and  _258
REMARK  104  A    between atoms: _259  and  _261
REMARK  105  A    between atoms: _261  and  _262
REMARK  106  A    between atoms: _261  and  _264
REMARK  107  A    between atoms: _264  and  _265
REMARK  108  A    between atoms: _268  and  _270
REMARK  109  A    between atoms: _270  and  _271
REMARK  110  A    between atoms: _273  and  _275
REMARK  111  A    between atoms: _275  and  _276
REMARK  112  A    between atoms: _275  and  _278
REMARK  113  A    between atoms: _278  and  _279
REMARK  114  A    between atoms: _284  and  _285
REMARK  115  A    between atoms: _287  and  _289
REMARK  116  A    between atoms: _289  and  _290
REMARK  117  A    between atoms: _289  and  _292
REMARK  118  A    between atoms: _292  and  _293
REMARK  119  A    between atoms: _293  and  _294
REMARK  120  A    between atoms: _294  and  _295
REMARK  121  A    between atoms: _304  and  _306
REMARK  122  A    between atoms: _306  and  _307
REMARK  123  A    between atoms: _306  and  _309
REMARK  124  A    between atoms: _309  and  _310
REMARK  125  A    between atoms: _310  and  _311
REMARK  126  A    between atoms: _311  and  _312
REMARK  127  A    between atoms: _312  and  _313
REMARK  128  A    between atoms: _317  and  _319
REMARK  129  A    between atoms: _319  and  _320
REMARK  130  A    between atoms: _322  and  _324
REMARK  131  A    between atoms: _324  and  _325
REMARK  132  A    between atoms: _328  and  _330
REMARK  133  A    between atoms: _330  and  _331
REMARK  134  A    between atoms: _330  and  _333
REMARK  135  A    between atoms: _333  and  _334
REMARK  136  A    between atoms: _339  and  _341
REMARK  137  A    between atoms: _341  and  _342
REMARK  138  A    between atoms: _345  and  _347
REMARK  139  A    between atoms: _347  and  _348
REMARK  140  A    between atoms: _351  and  _352
REMARK  141  A    between atoms: _357  and  _359
REMARK  142  A    between atoms: _359  and  _360
REMARK  143  A    between atoms: _359  and  _362
REMARK  144  A    between atoms: _362  and  _363
REMARK  145  A    between atoms: _366  and  _368
REMARK  146  A    between atoms: _368  and  _369
REMARK  147  A    between atoms: _368  and  _371
REMARK  148  A    between atoms: _371  and  _372
REMARK  149  A    between atoms: _382  and  _384
REMARK  150  A    between atoms: _384  and  _385
REMARK  151  A    between atoms: _384  and  _387
REMARK  152  A    between atoms: _387  and  _388
REMARK  153  A    between atoms: _394  and  _395
REMARK  154  A    between atoms: _400  and  _402
REMARK  155  A    between atoms: _402  and  _403
REMARK  156  A    between atoms: _402  and  _405
REMARK  157  A    between atoms: _405  and  _406
REMARK  158  A    between atoms: _409  and  _411
REMARK  159  A    between atoms: _411  and  _412
REMARK  160  A    between atoms: _411  and  _414
REMARK  161  A    between atoms: _414  and  _415
REMARK  162  A    between atoms: _417  and  _419
REMARK  163  A    between atoms: _419  and  _420
REMARK  164  A    between atoms: _419  and  _422
REMARK  165  A    between atoms: _422  and  _423
REMARK  166  A    between atoms: _428  and  _430
REMARK  167  A    between atoms: _430  and  _431
REMARK  168  A    between atoms: _430  and  _433
REMARK  169  A    between atoms: _436  and  _438
REMARK  170  A    between atoms: _438  and  _439
REMARK  171  A    between atoms: _438  and  _441
REMARK  172  A    between atoms: _441  and  _442
REMARK  173  A    between atoms: _442  and  _443
REMARK  174  A    between atoms: _449  and  _450
REMARK  175  A    between atoms: _455  and  _457
REMARK  176  A    between atoms: _457  and  _458
REMARK  177  A    between atoms: _457  and  _460
REMARK  178  A    between atoms: _460  and  _461
REMARK  179  A    between atoms: _464  and  _466
REMARK  180  A    between atoms: _466  and  _467
REMARK  181  A    between atoms: _466  and  _469
REMARK  182  A    between atoms: _469  and  _470
REMARK  183  A    between atoms: _473  and  _475
REMARK  184  A    between atoms: _475  and  _476
REMARK  185  A    between atoms: _475  and  _478
REMARK  186  A    between atoms: _478  and  _479
REMARK  187  A    between atoms: _481  and  _483
REMARK  188  A    between atoms: _483  and  _484
REMARK  189  A    between atoms: _483  and  _486
REMARK  190  A    between atoms: _486  and  _487
REMARK  191  A    between atoms: _492  and  _493
REMARK  192  A    between atoms: _495  and  _497
REMARK  193  A    between atoms: _497  and  _498
REMARK  194  A    between atoms: _497  and  _500
REMARK  195  A    between atoms: _500  and  _501
REMARK  196  A    between atoms: _506  and  _508
REMARK  197  A    between atoms: _508  and  _509
REMARK  198  A    between atoms: _508  and  _511
REMARK  199  A    between atoms: _511  and  _512
REMARK  200  A    between atoms: _515  and  _517
REMARK  201  A    between atoms: _517  and  _518
REMARK  202  A    between atoms: _517  and  _520
REMARK  203  A    between atoms: _520  and  _521
REMARK  204  A    between atoms: _531  and  _533
REMARK  205  A    between atoms: _533  and  _534
REMARK  206  A    between atoms: _536  and  _538
REMARK  207  A    between atoms: _538  and  _539
REMARK  208  A    between atoms: _538  and  _541
REMARK  209  A    between atoms: _541  and  _542
REMARK  210  A    between atoms: _547  and  _548
REMARK  211  A    between atoms: _550  and  _552
REMARK  212  A    between atoms: _552  and  _553
REMARK  213  A    between atoms: _552  and  _555
REMARK  214  A    between atoms: _555  and  _556
REMARK  215  A    between atoms: _556  and  _557
REMARK  216  A    between atoms: _557  and  _558
REMARK  217  A    between atoms: _567  and  _569
REMARK  218  A    between atoms: _569  and  _570
REMARK  219  A    between atoms: _569  and  _572
REMARK  220  A    between atoms: _572  and  _573
REMARK  221  A    between atoms: _573  and  _574
REMARK  222  A    between atoms: _574  and  _575
REMARK  223  A    between atoms: _575  and  _576
REMARK  224  A    between atoms: _580  and  _582
REMARK  225  A    between atoms: _582  and  _583
REMARK  226  A    between atoms: _585  and  _587
REMARK  227  A    between atoms: _587  and  _588
REMARK  228  A    between atoms: _591  and  _593
REMARK  229  A    between atoms: _593  and  _594
REMARK  230  A    between atoms: _593  and  _596
REMARK  231  A    between atoms: _596  and  _597
REMARK  232  A    between atoms: _602  and  _604
REMARK  233  A    between atoms: _604  and  _605
REMARK  234  A    between atoms: _608  and  _610
REMARK  235  A    between atoms: _610  and  _611
REMARK  236  A    between atoms: _614  and  _615
REMARK  237  A    between atoms: _620  and  _622
REMARK  238  A    between atoms: _622  and  _623
REMARK  239  A    between atoms: _622  and  _625
REMARK  240  A    between atoms: _625  and  _626
REMARK  241  A    between atoms: _629  and  _631
REMARK  242  A    between atoms: _631  and  _632
REMARK  243  A    between atoms: _631  and  _634
REMARK  244  A    between atoms: _634  and  _635
REMARK  245  A    between atoms: _645  and  _647
REMARK  246  A    between atoms: _647  and  _648
REMARK  247  A    between atoms: _647  and  _650
REMARK  248  A    between atoms: _650  and  _651
REMARK  249  A    between atoms: _657  and  _658
REMARK  250  A    between atoms: _663  and  _665
REMARK  251  A    between atoms: _665  and  _666
REMARK  252  A    between atoms: _665  and  _668
REMARK  253  A    between atoms: _668  and  _669
REMARK  254  A    between atoms: _672  and  _674
REMARK  255  A    between atoms: _674  and  _675
REMARK  256  A    between atoms: _674  and  _677
REMARK  257  A    between atoms: _677  and  _678
REMARK  258  A    between atoms: _678  and  _679
REMARK  259  A    between atoms: _682  and  _684
REMARK  260  A    between atoms: _684  and  _685
REMARK  261  A    between atoms: _684  and  _687
REMARK  262  A    between atoms: _687  and  _688
REMARK  263  A    between atoms: _688  and  _689
REMARK  264  A    between atoms: _689  and  _690
REMARK  265  A    between atoms: _690  and  _691
REMARK  266  A    between atoms: _695  and  _697
REMARK  267  A    between atoms: _697  and  _698
REMARK  268  A    between atoms: _700  and  _702
REMARK  269  A    between atoms: _702  and  _703
REMARK  270  A    between atoms: _702  and  _705
REMARK  271  A    between atoms: _705  and  _706
REMARK  272  A    between atoms: _711  and  _713
REMARK  273  A    between atoms: _713  and  _714
REMARK  274  A    between atoms: _713  and  _716
REMARK  275  A    between atoms: _716  and  _717
REMARK  276  A    between atoms: _717  and  _718
REMARK  277  A    between atoms: _718  and  _719
REMARK  278  A    between atoms: _728  and  _730
REMARK  279  A    between atoms: _730  and  _731
REMARK  280  A    between atoms: _730  and  _733
REMARK  281  A    between atoms: _733  and  _734
REMARK  282  A    between atoms: _737  and  _739
REMARK  283  A    between atoms: _739  and  _740
REMARK  284  A    between atoms: _739  and  _742
REMARK  285  A    between atoms: _745  and  _747
REMARK  286  A    between atoms: _747  and  _748
REMARK  287  A    between atoms: _747  and  _750
REMARK  288  A    between atoms: _750  and  _751
REMARK  289  A    between atoms: _751  and  _752
REMARK  290  A    between atoms: _758  and  _759
REMARK  291  A    between atoms: _764  and  _766
REMARK  292  A    between atoms: _766  and  _767
REMARK  293  A    between atoms: _766  and  _769
REMARK  294  A    between atoms: _769  and  _770
REMARK  295  A    between atoms: _773  and  _775
REMARK  296  A    between atoms: _775  and  _776
REMARK  297  A    between atoms: _775  and  _778
REMARK  298  A    between atoms: _778  and  _779
REMARK  299  A    between atoms: _782  and  _784
REMARK  300  A    between atoms: _784  and  _785
REMARK  301  A    between atoms: _784  and  _787
REMARK  302  A    between atoms: _787  and  _788
REMARK  303  A    between atoms: _790  and  _792
REMARK  304  A    between atoms: _792  and  _793
REMARK  305  A    between atoms: _792  and  _795
REMARK  306  A    between atoms: _795  and  _796
REMARK  307  A    between atoms: _796  and  _797
REMARK  308  A    between atoms: _797  and  _798
REMARK  309  A    between atoms: _807  and  _809
REMARK  310  A    between atoms: _809  and  _810
REMARK                            x       y       z     vdW  Elec       q    Type
REMARK                         _______ _______ _______ _____ _____    ______ ____
ROOT
ATOM      1  O   HOH     1     -13.872 -27.200 -16.726  0.00  0.00    +0.000 OA
ENDROOT
TORSDOF 0
REMARK  Name = ../refined-set-2016/3rt4/3rt4_pocket.pdb
REMARK  310 active torsions:
REMARK  status: ('A' for Active; 'I' for Inactive)
REMARK    1  A    between atoms: _1  and  _3
REMARK    2  A    between atoms: _3  and  _4
REMARK    3  A    between atoms: _3  and  _6
REMARK    4  A    between atoms: _6  and  _7
REMARK    5  A    between atoms: _7  and  _8
REMARK    6  A    between atoms: _8  and  _9
REMARK    7  A    between atoms: _18  and  _20
REMARK    8  A    between atoms: _20  and  _21
REMARK    9  A    between atoms: _20  and  _23
REMARK   10  A    between atoms: _26  and  _28
REMARK   11  A    between atoms: _28  and  _29
REMARK   12  A    between atoms: _28  and  _31
REMARK   13  A    between atoms: _31  and  _32
REMARK   14  A    between atoms: _32  and  _33
REMARK   15  A    between atoms: _33  and  _34
REMARK   16  A    between atoms: _43  and  _45
REMARK   17  A    between atoms: _45  and  _46
REMARK   18  A    between atoms: _45  and  _48
REMARK   19  A    between atoms: _48  and  _49
REMARK   20  A    between atoms: _51  and  _53
REMARK   21  A    between atoms: _53  and  _54
REMARK   22  A    between atoms: _53  and  _56
REMARK   23  A    between atoms: _56  and  _57
REMARK   24  A    between atoms: _62  and  _64
REMARK   25  A    between atoms: _64  and  _65
REMARK   26  A    between atoms: _64  and  _67
REMARK   27  A    between atoms: _67  and  _68
REMARK   28  A    between atoms: _73  and  _74
REMARK   29  A    between atoms: _76  and  _78
REMARK   30  A    between atoms: _78  and  _79
REMARK   31  A    between atoms: _78  and  _81
REMARK   32  A    between atoms: _81  and  _82
REMARK   33  A    between atoms: _82  and  _83
REMARK   34  A    between atoms: _86  and  _88
REMARK   35  A    between atoms: _88  and  _89
REMARK   36  A    between atoms: _88  and  _91
REMARK   37  A    between atoms: _91  and  _92
REMARK   38  A    between atoms: _92  and  _93
REMARK   39  A    between atoms: _93  and  _94
REMARK   40  A    between atoms: _94  and  _95
REMARK   41  A    between atoms: _99  and  _101
REMARK   42  A    between atoms: _101  and  _102
REMARK   43  A    between atoms: _101  and  _104
REMARK   44  A    between atoms: _104  and  _105
REMARK   45  A    between atoms: _110  and  _111
REMARK   46  A    between atoms: _113  and  _115
REMARK   47  A    between atoms: _115  and  _116
REMARK   48  A    between atoms: _115  and  _118
REMARK   49  A    between atoms: _118  and  _119
REMARK   50  A    between atoms: _119  and  _120
REMARK   51  A    between atoms: _120  and  _121
REMARK   52  A    between atoms: _130  and  _132
REMARK   53  A    between atoms: _132  and  _133
REMARK   54  A    between atoms: _136  and  _138
REMARK   55  A    between atoms: _138  and  _139
REMARK   56  A    between atoms: _138  and  _141
REMARK   57  A    between atoms: _141  and  _142
REMARK   58  A    between atoms: _142  and  _258
REMARK   59  A    between atoms: _143  and  _145
REMARK   60  A    between atoms: _145  and  _146
REMARK   61  A    between atoms: _145  and  _148
REMARK   62  A    between atoms: _148  and  _149
REMARK   63  A    between atoms: _149  and  _150
REMARK   64  A    between atoms: _153  and  _155
REMARK   65  A    between atoms: _155  and  _156
REMARK   66  A    between atoms: _155  and  _158
REMARK   67  A    between atoms: _158  and  _159
REMARK   68  A    between atoms: _161  and  _163
REMARK   69  A    between atoms: _163  and  _164
REMARK   70  A    between atoms: _163  and  _166
REMARK   71  A    between atoms: _166  and  _167
REMARK   72  A    between atoms: _172  and  _173
REMARK   73  A    between atoms: _175  and  _177
REMARK   74  A    between atoms: _177  and  _178
REMARK   75  A    between atoms: _177  and  _180
REMARK   76  A    between atoms: _180  and  _181
REMARK   77  A    between atoms: _186  and  _188
REMARK   78  A    between atoms: _188  and  _189
REMARK   79  A    between atoms: _188  and  _191
REMARK   80  A    between atoms: _194  and  _196
REMARK   81  A    between atoms: _196  and  _197
REMARK   82  A    between atoms: _196  and  _199
REMARK   83  A    between atoms: _199  and  _200
REMARK   84  A    between atoms: _200  and  _201
REMARK   85  A    between atoms: _201  and  _202
REMARK   86  A    between atoms: _211  and  _213
REMARK   87  A    between atoms: _213  and  _214
REMARK   88  A    between atoms: _213  and  _216
REMARK   89  A    between atoms: _216  and  _217
REMARK   90  A    between atoms: _222  and  _224
REMARK   91  A    between atoms: _224  and  _225
REMARK   92  A    between atoms: _224  and  _227
REMARK   93  A    between atoms: _227  and  _228
REMARK   94  A    between atoms: _231  and  _233
REMARK   95  A    between atoms: _233  and  _234
REMARK   96  A    between atoms: _236  and  _238
REMARK   97  A    between atoms: _238  and  _239
REMARK   98  A    between atoms: _238  and  _241
REMARK   99  A    between atoms: _241  and  _242
REMARK  100  A    between atoms: _252  and  _254
REMARK  101  A    between atoms: _254  and  _255
REMARK  102  A    between atoms: _254  and  _257
REMARK  103  A    between atoms: _257  and  _258
REMARK  104  A    between atoms: _259  and  _261
REMARK  105  A    between atoms: _261  and  _262
REMARK  106  A    between atoms: _261  and  _264
REMARK  107  A    between atoms: _264  and  _265
REMARK  108  A    between atoms: _268  and  _270
REMARK  109  A    between atoms: _270  and  _271
REMARK  110  A    between atoms: _273  and  _275
REMARK  111  A    between atoms: _275  and  _276
REMARK  112  A    between atoms: _275  and  _278
REMARK  113  A    between atoms: _278  and  _279
REMARK  114  A    between atoms: _284  and  _285
REMARK  115  A    between atoms: _287  and  _289
REMARK  116  A    between atoms: _289  and  _290
REMARK  117  A    between atoms: _289  and  _292
REMARK  118  A    between atoms: _292  and  _293
REMARK  119  A    between atoms: _293  and  _294
REMARK  120  A    between atoms: _294  and  _295
REMARK  121  A    between atoms: _304  and  _306
REMARK  122  A    between atoms: _306  and  _307
REMARK  123  A    between atoms: _306  and  _309
REMARK  124  A    between atoms: _309  and  _310
REMARK  125  A    between atoms: _310  and  _311
REMARK  126  A    between atoms: _311  and  _312
REMARK  127  A    between atoms: _312  and  _313
REMARK  128  A    between atoms: _317  and  _319
REMARK  129  A    between atoms: _319  and  _320
REMARK  130  A    between atoms: _322  and  _324
REMARK  131  A    between atoms: _324  and  _325
REMARK  132  A    between atoms: _328  and  _330
REMARK  133  A    between atoms: _330  and  _331
REMARK  134  A    between atoms: _330  and  _333
REMARK  135  A    between atoms: _333  and  _334
REMARK  136  A    between atoms: _339  and  _341
REMARK  137  A    between atoms: _341  and  _342
REMARK  138  A    between atoms: _345  and  _347
REMARK  139  A    between atoms: _347  and  _348
REMARK  140  A    between atoms: _351  and  _352
REMARK  141  A    between atoms: _357  and  _359
REMARK  142  A    between atoms: _359  and  _360
REMARK  143  A    between atoms: _359  and  _362
REMARK  144  A    between atoms: _362  and  _363
REMARK  145  A    between atoms: _366  and  _368
REMARK  146  A    between atoms: _368  and  _369
REMARK  147  A    between atoms: _368  and  _371
REMARK  148  A    between atoms: _371  and  _372
REMARK  149  A    between atoms: _382  and  _384
REMARK  150  A    between atoms: _384  and  _385
REMARK  151  A    between atoms: _384  and  _387
REMARK  152  A    between atoms: _387  and  _388
REMARK  153  A    between atoms: _394  and  _395
REMARK  154  A    between atoms: _400  and  _402
REMARK  155  A    between atoms: _402  and  _403
REMARK  156  A    between atoms: _402  and  _405
REMARK  157  A    between atoms: _405  and  _406
REMARK  158  A    between atoms: _409  and  _411
REMARK  159  A    between atoms: _411  and  _412
REMARK  160  A    between atoms: _411  and  _414
REMARK  161  A    between atoms: _414  and  _415
REMARK  162  A    between atoms: _417  and  _419
REMARK  163  A    between atoms: _419  and  _420
REMARK  164  A    between atoms: _419  and  _422
REMARK  165  A    between atoms: _422  and  _423
REMARK  166  A    between atoms: _428  and  _430
REMARK  167  A    between atoms: _430  and  _431
REMARK  168  A    between atoms: _430  and  _433
REMARK  169  A    between atoms: _436  and  _438
REMARK  170  A    between atoms: _438  and  _439
REMARK  171  A    between atoms: _438  and  _441
REMARK  172  A    between atoms: _441  and  _442
REMARK  173  A    between atoms: _442  and  _443
REMARK  174  A    between atoms: _449  and  _450
REMARK  175  A    between atoms: _455  and  _457
REMARK  176  A    between atoms: _457  and  _458
REMARK  177  A    between atoms: _457  and  _460
REMARK  178  A    between atoms: _460  and  _461
REMARK  179  A    between atoms: _464  and  _466
REMARK  180  A    between atoms: _466  and  _467
REMARK  181  A    between atoms: _466  and  _469
REMARK  182  A    between atoms: _469  and  _470
REMARK  183  A    between atoms: _473  and  _475
REMARK  184  A    between atoms: _475  and  _476
REMARK  185  A    between atoms: _475  and  _478
REMARK  186  A    between atoms: _478  and  _479
REMARK  187  A    between atoms: _481  and  _483
REMARK  188  A    between atoms: _483  and  _484
REMARK  189  A    between atoms: _483  and  _486
REMARK  190  A    between atoms: _486  and  _487
REMARK  191  A    between atoms: _492  and  _493
REMARK  192  A    between atoms: _495  and  _497
REMARK  193  A    between atoms: _497  and  _498
REMARK  194  A    between atoms: _497  and  _500
REMARK  195  A    between atoms: _500  and  _501
REMARK  196  A    between atoms: _506  and  _508
REMARK  197  A    between atoms: _508  and  _509
REMARK  198  A    between atoms: _508  and  _511
REMARK  199  A    between atoms: _511  and  _512
REMARK  200  A    between atoms: _515  and  _517
REMARK  201  A    between atoms: _517  and  _518
REMARK  202  A    between atoms: _517  and  _520
REMARK  203  A    between atoms: _520  and  _521
REMARK  204  A    between atoms: _531  and  _533
REMARK  205  A    between atoms: _533  and  _534
REMARK  206  A    between atoms: _536  and  _538
REMARK  207  A    between atoms: _538  and  _539
REMARK  208  A    between atoms: _538  and  _541
REMARK  209  A    between atoms: _541  and  _542
REMARK  210  A    between atoms: _547  and  _548
REMARK  211  A    between atoms: _550  and  _552
REMARK  212  A    between atoms: _552  and  _553
REMARK  213  A    between atoms: _552  and  _555
REMARK  214  A    between atoms: _555  and  _556
REMARK  215  A    between atoms: _556  and  _557
REMARK  216  A    between atoms: _557  and  _558
REMARK  217  A    between atoms: _567  and  _569
REMARK  218  A    between atoms: _569  and  _570
REMARK  219  A    between atoms: _569  and  _572
REMARK  220  A    between atoms: _572  and  _573
REMARK  221  A    between atoms: _573  and  _574
REMARK  222  A    between atoms: _574  and  _575
REMARK  223  A    between atoms: _575  and  _576
REMARK  224  A    between atoms: _580  and  _582
REMARK  225  A    between atoms: _582  and  _583
REMARK  226  A    between atoms: _585  and  _587
REMARK  227  A    between atoms: _587  and  _588
REMARK  228  A    between atoms: _591  and  _593
REMARK  229  A    between atoms: _593  and  _594
REMARK  230  A    between atoms: _593  and  _596
REMARK  231  A    between atoms: _596  and  _597
REMARK  232  A    between atoms: _602  and  _604
REMARK  233  A    between atoms: _604  and  _605
REMARK  234  A    between atoms: _608  and  _610
REMARK  235  A    between atoms: _610  and  _611
REMARK  236  A    between atoms: _614  and  _615
REMARK  237  A    between atoms: _620  and  _622
REMARK  238  A    between atoms: _622  and  _623
REMARK  239  A    between atoms: _622  and  _625
REMARK  240  A    between atoms: _625  and  _626
REMARK  241  A    between atoms: _629  and  _631
REMARK  242  A    between atoms: _631  and  _632
REMARK  243  A    between atoms: _631  and  _634
REMARK  244  A    between atoms: _634  and  _635
REMARK  245  A    between atoms: _645  and  _647
REMARK  246  A    between atoms: _647  and  _648
REMARK  247  A    between atoms: _647  and  _650
REMARK  248  A    between atoms: _650  and  _651
REMARK  249  A    between atoms: _657  and  _658
REMARK  250  A    between atoms: _663  and  _665
REMARK  251  A    between atoms: _665  and  _666
REMARK  252  A    between atoms: _665  and  _668
REMARK  253  A    between atoms: _668  and  _669
REMARK  254  A    between atoms: _672  and  _674
REMARK  255  A    between atoms: _674  and  _675
REMARK  256  A    between atoms: _674  and  _677
REMARK  257  A    between atoms: _677  and  _678
REMARK  258  A    between atoms: _678  and  _679
REMARK  259  A    between atoms: _682  and  _684
REMARK  260  A    between atoms: _684  and  _685
REMARK  261  A    between atoms: _684  and  _687
REMARK  262  A    between atoms: _687  and  _688
REMARK  263  A    between atoms: _688  and  _689
REMARK  264  A    between atoms: _689  and  _690
REMARK  265  A    between atoms: _690  and  _691
REMARK  266  A    between atoms: _695  and  _697
REMARK  267  A    between atoms: _697  and  _698
REMARK  268  A    between atoms: _700  and  _702
REMARK  269  A    between atoms: _702  and  _703
REMARK  270  A    between atoms: _702  and  _705
REMARK  271  A    between atoms: _705  and  _706
REMARK  272  A    between atoms: _711  and  _713
REMARK  273  A    between atoms: _713  and  _714
REMARK  274  A    between atoms: _713  and  _716
REMARK  275  A    between atoms: _716  and  _717
REMARK  276  A    between atoms: _717  and  _718
REMARK  277  A    between atoms: _718  and  _719
REMARK  278  A    between atoms: _728  and  _730
REMARK  279  A    between atoms: _730  and  _731
REMARK  280  A    between atoms: _730  and  _733
REMARK  281  A    between atoms: _733  and  _734
REMARK  282  A    between atoms: _737  and  _739
REMARK  283  A    between atoms: _739  and  _740
REMARK  284  A    between atoms: _739  and  _742
REMARK  285  A    between atoms: _745  and  _747
REMARK  286  A    between atoms: _747  and  _748
REMARK  287  A    between atoms: _747  and  _750
REMARK  288  A    between atoms: _750  and  _751
REMARK  289  A    between atoms: _751  and  _752
REMARK  290  A    between atoms: _758  and  _759
REMARK  291  A    between atoms: _764  and  _766
REMARK  292  A    between atoms: _766  and  _767
REMARK  293  A    between atoms: _766  and  _769
REMARK  294  A    between atoms: _769  and  _770
REMARK  295  A    between atoms: _773  and  _775
REMARK  296  A    between atoms: _775  and  _776
REMARK  297  A    between atoms: _775  and  _778
REMARK  298  A    between atoms: _778  and  _779
REMARK  299  A    between atoms: _782  and  _784
REMARK  300  A    between atoms: _784  and  _785
REMARK  301  A    between atoms: _784  and  _787
REMARK  302  A    between atoms: _787  and  _788
REMARK  303  A    between atoms: _790  and  _792
REMARK  304  A    between atoms: _792  and  _793
REMARK  305  A    between atoms: _792  and  _795
REMARK  306  A    between atoms: _795  and  _796
REMARK  307  A    between atoms: _796  and  _797
REMARK  308  A    between atoms: _797  and  _798
REMARK  309  A    between atoms: _807  and  _809
REMARK  310  A    between atoms: _809  and  _810
REMARK                            x       y       z     vdW  Elec       q    Type
REMARK                         _______ _______ _______ _____ _____    ______ ____
ROOT
ATOM      1  O   HOH     1     -15.249 -25.830 -19.437  0.00  0.00    +0.000 OA
ENDROOT
TORSDOF 0
REMARK  Name = ../refined-set-2016/3rt4/3rt4_pocket.pdb
REMARK  310 active torsions:
REMARK  status: ('A' for Active; 'I' for Inactive)
REMARK    1  A    between atoms: _1  and  _3
REMARK    2  A    between atoms: _3  and  _4
REMARK    3  A    between atoms: _3  and  _6
REMARK    4  A    between atoms: _6  and  _7
REMARK    5  A    between atoms: _7  and  _8
REMARK    6  A    between atoms: _8  and  _9
REMARK    7  A    between atoms: _18  and  _20
REMARK    8  A    between atoms: _20  and  _21
REMARK    9  A    between atoms: _20  and  _23
REMARK   10  A    between atoms: _26  and  _28
REMARK   11  A    between atoms: _28  and  _29
REMARK   12  A    between atoms: _28  and  _31
REMARK   13  A    between atoms: _31  and  _32
REMARK   14  A    between atoms: _32  and  _33
REMARK   15  A    between atoms: _33  and  _34
REMARK   16  A    between atoms: _43  and  _45
REMARK   17  A    between atoms: _45  and  _46
REMARK   18  A    between atoms: _45  and  _48
REMARK   19  A    between atoms: _48  and  _49
REMARK   20  A    between atoms: _51  and  _53
REMARK   21  A    between atoms: _53  and  _54
REMARK   22  A    between atoms: _53  and  _56
REMARK   23  A    between atoms: _56  and  _57
REMARK   24  A    between atoms: _62  and  _64
REMARK   25  A    between atoms: _64  and  _65
REMARK   26  A    between atoms: _64  and  _67
REMARK   27  A    between atoms: _67  and  _68
REMARK   28  A    between atoms: _73  and  _74
REMARK   29  A    between atoms: _76  and  _78
REMARK   30  A    between atoms: _78  and  _79
REMARK   31  A    between atoms: _78  and  _81
REMARK   32  A    between atoms: _81  and  _82
REMARK   33  A    between atoms: _82  and  _83
REMARK   34  A    between atoms: _86  and  _88
REMARK   35  A    between atoms: _88  and  _89
REMARK   36  A    between atoms: _88  and  _91
REMARK   37  A    between atoms: _91  and  _92
REMARK   38  A    between atoms: _92  and  _93
REMARK   39  A    between atoms: _93  and  _94
REMARK   40  A    between atoms: _94  and  _95
REMARK   41  A    between atoms: _99  and  _101
REMARK   42  A    between atoms: _101  and  _102
REMARK   43  A    between atoms: _101  and  _104
REMARK   44  A    between atoms: _104  and  _105
REMARK   45  A    between atoms: _110  and  _111
REMARK   46  A    between atoms: _113  and  _115
REMARK   47  A    between atoms: _115  and  _116
REMARK   48  A    between atoms: _115  and  _118
REMARK   49  A    between atoms: _118  and  _119
REMARK   50  A    between atoms: _119  and  _120
REMARK   51  A    between atoms: _120  and  _121
REMARK   52  A    between atoms: _130  and  _132
REMARK   53  A    between atoms: _132  and  _133
REMARK   54  A    between atoms: _136  and  _138
REMARK   55  A    between atoms: _138  and  _139
REMARK   56  A    between atoms: _138  and  _141
REMARK   57  A    between atoms: _141  and  _142
REMARK   58  A    between atoms: _142  and  _258
REMARK   59  A    between atoms: _143  and  _145
REMARK   60  A    between atoms: _145  and  _146
REMARK   61  A    between atoms: _145  and  _148
REMARK   62  A    between atoms: _148  and  _149
REMARK   63  A    between atoms: _149  and  _150
REMARK   64  A    between atoms: _153  and  _155
REMARK   65  A    between atoms: _155  and  _156
REMARK   66  A    between atoms: _155  and  _158
REMARK   67  A    between atoms: _158  and  _159
REMARK   68  A    between atoms: _161  and  _163
REMARK   69  A    between atoms: _163  and  _164
REMARK   70  A    between atoms: _163  and  _166
REMARK   71  A    between atoms: _166  and  _167
REMARK   72  A    between atoms: _172  and  _173
REMARK   73  A    between atoms: _175  and  _177
REMARK   74  A    between atoms: _177  and  _178
REMARK   75  A    between atoms: _177  and  _180
REMARK   76  A    between atoms: _180  and  _181
REMARK   77  A    between atoms: _186  and  _188
REMARK   78  A    between atoms: _188  and  _189
REMARK   79  A    between atoms: _188  and  _191
REMARK   80  A    between atoms: _194  and  _196
REMARK   81  A    between atoms: _196  and  _197
REMARK   82  A    between atoms: _196  and  _199
REMARK   83  A    between atoms: _199  and  _200
REMARK   84  A    between atoms: _200  and  _201
REMARK   85  A    between atoms: _201  and  _202
REMARK   86  A    between atoms: _211  and  _213
REMARK   87  A    between atoms: _213  and  _214
REMARK   88  A    between atoms: _213  and  _216
REMARK   89  A    between atoms: _216  and  _217
REMARK   90  A    between atoms: _222  and  _224
REMARK   91  A    between atoms: _224  and  _225
REMARK   92  A    between atoms: _224  and  _227
REMARK   93  A    between atoms: _227  and  _228
REMARK   94  A    between atoms: _231  and  _233
REMARK   95  A    between atoms: _233  and  _234
REMARK   96  A    between atoms: _236  and  _238
REMARK   97  A    between atoms: _238  and  _239
REMARK   98  A    between atoms: _238  and  _241
REMARK   99  A    between atoms: _241  and  _242
REMARK  100  A    between atoms: _252  and  _254
REMARK  101  A    between atoms: _254  and  _255
REMARK  102  A    between atoms: _254  and  _257
REMARK  103  A    between atoms: _257  and  _258
REMARK  104  A    between atoms: _259  and  _261
REMARK  105  A    between atoms: _261  and  _262
REMARK  106  A    between atoms: _261  and  _264
REMARK  107  A    between atoms: _264  and  _265
REMARK  108  A    between atoms: _268  and  _270
REMARK  109  A    between atoms: _270  and  _271
REMARK  110  A    between atoms: _273  and  _275
REMARK  111  A    between atoms: _275  and  _276
REMARK  112  A    between atoms: _275  and  _278
REMARK  113  A    between atoms: _278  and  _279
REMARK  114  A    between atoms: _284  and  _285
REMARK  115  A    between atoms: _287  and  _289
REMARK  116  A    between atoms: _289  and  _290
REMARK  117  A    between atoms: _289  and  _292
REMARK  118  A    between atoms: _292  and  _293
REMARK  119  A    between atoms: _293  and  _294
REMARK  120  A    between atoms: _294  and  _295
REMARK  121  A    between atoms: _304  and  _306
REMARK  122  A    between atoms: _306  and  _307
REMARK  123  A    between atoms: _306  and  _309
REMARK  124  A    between atoms: _309  and  _310
REMARK  125  A    between atoms: _310  and  _311
REMARK  126  A    between atoms: _311  and  _312
REMARK  127  A    between atoms: _312  and  _313
REMARK  128  A    between atoms: _317  and  _319
REMARK  129  A    between atoms: _319  and  _320
REMARK  130  A    between atoms: _322  and  _324
REMARK  131  A    between atoms: _324  and  _325
REMARK  132  A    between atoms: _328  and  _330
REMARK  133  A    between atoms: _330  and  _331
REMARK  134  A    between atoms: _330  and  _333
REMARK  135  A    between atoms: _333  and  _334
REMARK  136  A    between atoms: _339  and  _341
REMARK  137  A    between atoms: _341  and  _342
REMARK  138  A    between atoms: _345  and  _347
REMARK  139  A    between atoms: _347  and  _348
REMARK  140  A    between atoms: _351  and  _352
REMARK  141  A    between atoms: _357  and  _359
REMARK  142  A    between atoms: _359  and  _360
REMARK  143  A    between atoms: _359  and  _362
REMARK  144  A    between atoms: _362  and  _363
REMARK  145  A    between atoms: _366  and  _368
REMARK  146  A    between atoms: _368  and  _369
REMARK  147  A    between atoms: _368  and  _371
REMARK  148  A    between atoms: _371  and  _372
REMARK  149  A    between atoms: _382  and  _384
REMARK  150  A    between atoms: _384  and  _385
REMARK  151  A    between atoms: _384  and  _387
REMARK  152  A    between atoms: _387  and  _388
REMARK  153  A    between atoms: _394  and  _395
REMARK  154  A    between atoms: _400  and  _402
REMARK  155  A    between atoms: _402  and  _403
REMARK  156  A    between atoms: _402  and  _405
REMARK  157  A    between atoms: _405  and  _406
REMARK  158  A    between atoms: _409  and  _411
REMARK  159  A    between atoms: _411  and  _412
REMARK  160  A    between atoms: _411  and  _414
REMARK  161  A    between atoms: _414  and  _415
REMARK  162  A    between atoms: _417  and  _419
REMARK  163  A    between atoms: _419  and  _420
REMARK  164  A    between atoms: _419  and  _422
REMARK  165  A    between atoms: _422  and  _423
REMARK  166  A    between atoms: _428  and  _430
REMARK  167  A    between atoms: _430  and  _431
REMARK  168  A    between atoms: _430  and  _433
REMARK  169  A    between atoms: _436  and  _438
REMARK  170  A    between atoms: _438  and  _439
REMARK  171  A    between atoms: _438  and  _441
REMARK  172  A    between atoms: _441  and  _442
REMARK  173  A    between atoms: _442  and  _443
REMARK  174  A    between atoms: _449  and  _450
REMARK  175  A    between atoms: _455  and  _457
REMARK  176  A    between atoms: _457  and  _458
REMARK  177  A    between atoms: _457  and  _460
REMARK  178  A    between atoms: _460  and  _461
REMARK  179  A    between atoms: _464  and  _466
REMARK  180  A    between atoms: _466  and  _467
REMARK  181  A    between atoms: _466  and  _469
REMARK  182  A    between atoms: _469  and  _470
REMARK  183  A    between atoms: _473  and  _475
REMARK  184  A    between atoms: _475  and  _476
REMARK  185  A    between atoms: _475  and  _478
REMARK  186  A    between atoms: _478  and  _479
REMARK  187  A    between atoms: _481  and  _483
REMARK  188  A    between atoms: _483  and  _484
REMARK  189  A    between atoms: _483  and  _486
REMARK  190  A    between atoms: _486  and  _487
REMARK  191  A    between atoms: _492  and  _493
REMARK  192  A    between atoms: _495  and  _497
REMARK  193  A    between atoms: _497  and  _498
REMARK  194  A    between atoms: _497  and  _500
REMARK  195  A    between atoms: _500  and  _501
REMARK  196  A    between atoms: _506  and  _508
REMARK  197  A    between atoms: _508  and  _509
REMARK  198  A    between atoms: _508  and  _511
REMARK  199  A    between atoms: _511  and  _512
REMARK  200  A    between atoms: _515  and  _517
REMARK  201  A    between atoms: _517  and  _518
REMARK  202  A    between atoms: _517  and  _520
REMARK  203  A    between atoms: _520  and  _521
REMARK  204  A    between atoms: _531  and  _533
REMARK  205  A    between atoms: _533  and  _534
REMARK  206  A    between atoms: _536  and  _538
REMARK  207  A    between atoms: _538  and  _539
REMARK  208  A    between atoms: _538  and  _541
REMARK  209  A    between atoms: _541  and  _542
REMARK  210  A    between atoms: _547  and  _548
REMARK  211  A    between atoms: _550  and  _552
REMARK  212  A    between atoms: _552  and  _553
REMARK  213  A    between atoms: _552  and  _555
REMARK  214  A    between atoms: _555  and  _556
REMARK  215  A    between atoms: _556  and  _557
REMARK  216  A    between atoms: _557  and  _558
REMARK  217  A    between atoms: _567  and  _569
REMARK  218  A    between atoms: _569  and  _570
REMARK  219  A    between atoms: _569  and  _572
REMARK  220  A    between atoms: _572  and  _573
REMARK  221  A    between atoms: _573  and  _574
REMARK  222  A    between atoms: _574  and  _575
REMARK  223  A    between atoms: _575  and  _576
REMARK  224  A    between atoms: _580  and  _582
REMARK  225  A    between atoms: _582  and  _583
REMARK  226  A    between atoms: _585  and  _587
REMARK  227  A    between atoms: _587  and  _588
REMARK  228  A    between atoms: _591  and  _593
REMARK  229  A    between atoms: _593  and  _594
REMARK  230  A    between atoms: _593  and  _596
REMARK  231  A    between atoms: _596  and  _597
REMARK  232  A    between atoms: _602  and  _604
REMARK  233  A    between atoms: _604  and  _605
REMARK  234  A    between atoms: _608  and  _610
REMARK  235  A    between atoms: _610  and  _611
REMARK  236  A    between atoms: _614  and  _615
REMARK  237  A    between atoms: _620  and  _622
REMARK  238  A    between atoms: _622  and  _623
REMARK  239  A    between atoms: _622  and  _625
REMARK  240  A    between atoms: _625  and  _626
REMARK  241  A    between atoms: _629  and  _631
REMARK  242  A    between atoms: _631  and  _632
REMARK  243  A    between atoms: _631  and  _634
REMARK  244  A    between atoms: _634  and  _635
REMARK  245  A    between atoms: _645  and  _647
REMARK  246  A    between atoms: _647  and  _648
REMARK  247  A    between atoms: _647  and  _650
REMARK  248  A    between atoms: _650  and  _651
REMARK  249  A    between atoms: _657  and  _658
REMARK  250  A    between atoms: _663  and  _665
REMARK  251  A    between atoms: _665  and  _666
REMARK  252  A    between atoms: _665  and  _668
REMARK  253  A    between atoms: _668  and  _669
REMARK  254  A    between atoms: _672  and  _674
REMARK  255  A    between atoms: _674  and  _675
REMARK  256  A    between atoms: _674  and  _677
REMARK  257  A    between atoms: _677  and  _678
REMARK  258  A    between atoms: _678  and  _679
REMARK  259  A    between atoms: _682  and  _684
REMARK  260  A    between atoms: _684  and  _685
REMARK  261  A    between atoms: _684  and  _687
REMARK  262  A    between atoms: _687  and  _688
REMARK  263  A    between atoms: _688  and  _689
REMARK  264  A    between atoms: _689  and  _690
REMARK  265  A    between atoms: _690  and  _691
REMARK  266  A    between atoms: _695  and  _697
REMARK  267  A    between atoms: _697  and  _698
REMARK  268  A    between atoms: _700  and  _702
REMARK  269  A    between atoms: _702  and  _703
REMARK  270  A    between atoms: _702  and  _705
REMARK  271  A    between atoms: _705  and  _706
REMARK  272  A    between atoms: _711  and  _713
REMARK  273  A    between atoms: _713  and  _714
REMARK  274  A    between atoms: _713  and  _716
REMARK  275  A    between atoms: _716  and  _717
REMARK  276  A    between atoms: _717  and  _718
REMARK  277  A    between atoms: _718  and  _719
REMARK  278  A    between atoms: _728  and  _730
REMARK  279  A    between atoms: _730  and  _731
REMARK  280  A    between atoms: _730  and  _733
REMARK  281  A    between atoms: _733  and  _734
REMARK  282  A    between atoms: _737  and  _739
REMARK  283  A    between atoms: _739  and  _740
REMARK  284  A    between atoms: _739  and  _742
REMARK  285  A    between atoms: _745  and  _747
REMARK  286  A    between atoms: _747  and  _748
REMARK  287  A    between atoms: _747  and  _750
REMARK  288  A    between atoms: _750  and  _751
REMARK  289  A    between atoms: _751  and  _752
REMARK  290  A    between atoms: _758  and  _759
REMARK  291  A    between atoms: _764  and  _766
REMARK  292  A    between atoms: _766  and  _767
REMARK  293  A    between atoms: _766  and  _769
REMARK  294  A    between atoms: _769  and  _770
REMARK  295  A    between atoms: _773  and  _775
REMARK  296  A    between atoms: _775  and  _776
REMARK  297  A    between atoms: _775  and  _778
REMARK  298  A    between atoms: _778  and  _779
REMARK  299  A    between atoms: _782  and  _784
REMARK  300  A    between atoms: _784  and  _785
REMARK  301  A    between atoms: _784  and  _787
REMARK  302  A    between atoms: _787  and  _788
REMARK  303  A    between atoms: _790  and  _792
REMARK  304  A    between atoms: _792  and  _793
REMARK  305  A    between atoms: _792  and  _795
REMARK  306  A    between atoms: _795  and  _796
REMARK  307  A    between atoms: _796  and  _797
REMARK  308  A    between atoms: _797  and  _798
REMARK  309  A    between atoms: _807  and  _809
REMARK  310  A    between atoms: _809  and  _810
REMARK                            x       y       z     vdW  Elec       q    Type
REMARK                         _______ _______ _______ _____ _____    ______ ____
ROOT
ATOM      1  O   HOH     1     -32.513 -22.006 -11.801  0.00  0.00    +0.000 OA
ENDROOT
TORSDOF 0
REMARK  Name = ../refined-set-2016/3rt4/3rt4_pocket.pdb
REMARK  310 active torsions:
REMARK  status: ('A' for Active; 'I' for Inactive)
REMARK    1  A    between atoms: _1  and  _3
REMARK    2  A    between atoms: _3  and  _4
REMARK    3  A    between atoms: _3  and  _6
REMARK    4  A    between atoms: _6  and  _7
REMARK    5  A    between atoms: _7  and  _8
REMARK    6  A    between atoms: _8  and  _9
REMARK    7  A    between atoms: _18  and  _20
REMARK    8  A    between atoms: _20  and  _21
REMARK    9  A    between atoms: _20  and  _23
REMARK   10  A    between atoms: _26  and  _28
REMARK   11  A    between atoms: _28  and  _29
REMARK   12  A    between atoms: _28  and  _31
REMARK   13  A    between atoms: _31  and  _32
REMARK   14  A    between atoms: _32  and  _33
REMARK   15  A    between atoms: _33  and  _34
REMARK   16  A    between atoms: _43  and  _45
REMARK   17  A    between atoms: _45  and  _46
REMARK   18  A    between atoms: _45  and  _48
REMARK   19  A    between atoms: _48  and  _49
REMARK   20  A    between atoms: _51  and  _53
REMARK   21  A    between atoms: _53  and  _54
REMARK   22  A    between atoms: _53  and  _56
REMARK   23  A    between atoms: _56  and  _57
REMARK   24  A    between atoms: _62  and  _64
REMARK   25  A    between atoms: _64  and  _65
REMARK   26  A    between atoms: _64  and  _67
REMARK   27  A    between atoms: _67  and  _68
REMARK   28  A    between atoms: _73  and  _74
REMARK   29  A    between atoms: _76  and  _78
REMARK   30  A    between atoms: _78  and  _79
REMARK   31  A    between atoms: _78  and  _81
REMARK   32  A    between atoms: _81  and  _82
REMARK   33  A    between atoms: _82  and  _83
REMARK   34  A    between atoms: _86  and  _88
REMARK   35  A    between atoms: _88  and  _89
REMARK   36  A    between atoms: _88  and  _91
REMARK   37  A    between atoms: _91  and  _92
REMARK   38  A    between atoms: _92  and  _93
REMARK   39  A    between atoms: _93  and  _94
REMARK   40  A    between atoms: _94  and  _95
REMARK   41  A    between atoms: _99  and  _101
REMARK   42  A    between atoms: _101  and  _102
REMARK   43  A    between atoms: _101  and  _104
REMARK   44  A    between atoms: _104  and  _105
REMARK   45  A    between atoms: _110  and  _111
REMARK   46  A    between atoms: _113  and  _115
REMARK   47  A    between atoms: _115  and  _116
REMARK   48  A    between atoms: _115  and  _118
REMARK   49  A    between atoms: _118  and  _119
REMARK   50  A    between atoms: _119  and  _120
REMARK   51  A    between atoms: _120  and  _121
REMARK   52  A    between atoms: _130  and  _132
REMARK   53  A    between atoms: _132  and  _133
REMARK   54  A    between atoms: _136  and  _138
REMARK   55  A    between atoms: _138  and  _139
REMARK   56  A    between atoms: _138  and  _141
REMARK   57  A    between atoms: _141  and  _142
REMARK   58  A    between atoms: _142  and  _258
REMARK   59  A    between atoms: _143  and  _145
REMARK   60  A    between atoms: _145  and  _146
REMARK   61  A    between atoms: _145  and  _148
REMARK   62  A    between atoms: _148  and  _149
REMARK   63  A    between atoms: _149  and  _150
REMARK   64  A    between atoms: _153  and  _155
REMARK   65  A    between atoms: _155  and  _156
REMARK   66  A    between atoms: _155  and  _158
REMARK   67  A    between atoms: _158  and  _159
REMARK   68  A    between atoms: _161  and  _163
REMARK   69  A    between atoms: _163  and  _164
REMARK   70  A    between atoms: _163  and  _166
REMARK   71  A    between atoms: _166  and  _167
REMARK   72  A    between atoms: _172  and  _173
REMARK   73  A    between atoms: _175  and  _177
REMARK   74  A    between atoms: _177  and  _178
REMARK   75  A    between atoms: _177  and  _180
REMARK   76  A    between atoms: _180  and  _181
REMARK   77  A    between atoms: _186  and  _188
REMARK   78  A    between atoms: _188  and  _189
REMARK   79  A    between atoms: _188  and  _191
REMARK   80  A    between atoms: _194  and  _196
REMARK   81  A    between atoms: _196  and  _197
REMARK   82  A    between atoms: _196  and  _199
REMARK   83  A    between atoms: _199  and  _200
REMARK   84  A    between atoms: _200  and  _201
REMARK   85  A    between atoms: _201  and  _202
REMARK   86  A    between atoms: _211  and  _213
REMARK   87  A    between atoms: _213  and  _214
REMARK   88  A    between atoms: _213  and  _216
REMARK   89  A    between atoms: _216  and  _217
REMARK   90  A    between atoms: _222  and  _224
REMARK   91  A    between atoms: _224  and  _225
REMARK   92  A    between atoms: _224  and  _227
REMARK   93  A    between atoms: _227  and  _228
REMARK   94  A    between atoms: _231  and  _233
REMARK   95  A    between atoms: _233  and  _234
REMARK   96  A    between atoms: _236  and  _238
REMARK   97  A    between atoms: _238  and  _239
REMARK   98  A    between atoms: _238  and  _241
REMARK   99  A    between atoms: _241  and  _242
REMARK  100  A    between atoms: _252  and  _254
REMARK  101  A    between atoms: _254  and  _255
REMARK  102  A    between atoms: _254  and  _257
REMARK  103  A    between atoms: _257  and  _258
REMARK  104  A    between atoms: _259  and  _261
REMARK  105  A    between atoms: _261  and  _262
REMARK  106  A    between atoms: _261  and  _264
REMARK  107  A    between atoms: _264  and  _265
REMARK  108  A    between atoms: _268  and  _270
REMARK  109  A    between atoms: _270  and  _271
REMARK  110  A    between atoms: _273  and  _275
REMARK  111  A    between atoms: _275  and  _276
REMARK  112  A    between atoms: _275  and  _278
REMARK  113  A    between atoms: _278  and  _279
REMARK  114  A    between atoms: _284  and  _285
REMARK  115  A    between atoms: _287  and  _289
REMARK  116  A    between atoms: _289  and  _290
REMARK  117  A    between atoms: _289  and  _292
REMARK  118  A    between atoms: _292  and  _293
REMARK  119  A    between atoms: _293  and  _294
REMARK  120  A    between atoms: _294  and  _295
REMARK  121  A    between atoms: _304  and  _306
REMARK  122  A    between atoms: _306  and  _307
REMARK  123  A    between atoms: _306  and  _309
REMARK  124  A    between atoms: _309  and  _310
REMARK  125  A    between atoms: _310  and  _311
REMARK  126  A    between atoms: _311  and  _312
REMARK  127  A    between atoms: _312  and  _313
REMARK  128  A    between atoms: _317  and  _319
REMARK  129  A    between atoms: _319  and  _320
REMARK  130  A    between atoms: _322  and  _324
REMARK  131  A    between atoms: _324  and  _325
REMARK  132  A    between atoms: _328  and  _330
REMARK  133  A    between atoms: _330  and  _331
REMARK  134  A    between atoms: _330  and  _333
REMARK  135  A    between atoms: _333  and  _334
REMARK  136  A    between atoms: _339  and  _341
REMARK  137  A    between atoms: _341  and  _342
REMARK  138  A    between atoms: _345  and  _347
REMARK  139  A    between atoms: _347  and  _348
REMARK  140  A    between atoms: _351  and  _352
REMARK  141  A    between atoms: _357  and  _359
REMARK  142  A    between atoms: _359  and  _360
REMARK  143  A    between atoms: _359  and  _362
REMARK  144  A    between atoms: _362  and  _363
REMARK  145  A    between atoms: _366  and  _368
REMARK  146  A    between atoms: _368  and  _369
REMARK  147  A    between atoms: _368  and  _371
REMARK  148  A    between atoms: _371  and  _372
REMARK  149  A    between atoms: _382  and  _384
REMARK  150  A    between atoms: _384  and  _385
REMARK  151  A    between atoms: _384  and  _387
REMARK  152  A    between atoms: _387  and  _388
REMARK  153  A    between atoms: _394  and  _395
REMARK  154  A    between atoms: _400  and  _402
REMARK  155  A    between atoms: _402  and  _403
REMARK  156  A    between atoms: _402  and  _405
REMARK  157  A    between atoms: _405  and  _406
REMARK  158  A    between atoms: _409  and  _411
REMARK  159  A    between atoms: _411  and  _412
REMARK  160  A    between atoms: _411  and  _414
REMARK  161  A    between atoms: _414  and  _415
REMARK  162  A    between atoms: _417  and  _419
REMARK  163  A    between atoms: _419  and  _420
REMARK  164  A    between atoms: _419  and  _422
REMARK  165  A    between atoms: _422  and  _423
REMARK  166  A    between atoms: _428  and  _430
REMARK  167  A    between atoms: _430  and  _431
REMARK  168  A    between atoms: _430  and  _433
REMARK  169  A    between atoms: _436  and  _438
REMARK  170  A    between atoms: _438  and  _439
REMARK  171  A    between atoms: _438  and  _441
REMARK  172  A    between atoms: _441  and  _442
REMARK  173  A    between atoms: _442  and  _443
REMARK  174  A    between atoms: _449  and  _450
REMARK  175  A    between atoms: _455  and  _457
REMARK  176  A    between atoms: _457  and  _458
REMARK  177  A    between atoms: _457  and  _460
REMARK  178  A    between atoms: _460  and  _461
REMARK  179  A    between atoms: _464  and  _466
REMARK  180  A    between atoms: _466  and  _467
REMARK  181  A    between atoms: _466  and  _469
REMARK  182  A    between atoms: _469  and  _470
REMARK  183  A    between atoms: _473  and  _475
REMARK  184  A    between atoms: _475  and  _476
REMARK  185  A    between atoms: _475  and  _478
REMARK  186  A    between atoms: _478  and  _479
REMARK  187  A    between atoms: _481  and  _483
REMARK  188  A    between atoms: _483  and  _484
REMARK  189  A    between atoms: _483  and  _486
REMARK  190  A    between atoms: _486  and  _487
REMARK  191  A    between atoms: _492  and  _493
REMARK  192  A    between atoms: _495  and  _497
REMARK  193  A    between atoms: _497  and  _498
REMARK  194  A    between atoms: _497  and  _500
REMARK  195  A    between atoms: _500  and  _501
REMARK  196  A    between atoms: _506  and  _508
REMARK  197  A    between atoms: _508  and  _509
REMARK  198  A    between atoms: _508  and  _511
REMARK  199  A    between atoms: _511  and  _512
REMARK  200  A    between atoms: _515  and  _517
REMARK  201  A    between atoms: _517  and  _518
REMARK  202  A    between atoms: _517  and  _520
REMARK  203  A    between atoms: _520  and  _521
REMARK  204  A    between atoms: _531  and  _533
REMARK  205  A    between atoms: _533  and  _534
REMARK  206  A    between atoms: _536  and  _538
REMARK  207  A    between atoms: _538  and  _539
REMARK  208  A    between atoms: _538  and  _541
REMARK  209  A    between atoms: _541  and  _542
REMARK  210  A    between atoms: _547  and  _548
REMARK  211  A    between atoms: _550  and  _552
REMARK  212  A    between atoms: _552  and  _553
REMARK  213  A    between atoms: _552  and  _555
REMARK  214  A    between atoms: _555  and  _556
REMARK  215  A    between atoms: _556  and  _557
REMARK  216  A    between atoms: _557  and  _558
REMARK  217  A    between atoms: _567  and  _569
REMARK  218  A    between atoms: _569  and  _570
REMARK  219  A    between atoms: _569  and  _572
REMARK  220  A    between atoms: _572  and  _573
REMARK  221  A    between atoms: _573  and  _574
REMARK  222  A    between atoms: _574  and  _575
REMARK  223  A    between atoms: _575  and  _576
REMARK  224  A    between atoms: _580  and  _582
REMARK  225  A    between atoms: _582  and  _583
REMARK  226  A    between atoms: _585  and  _587
REMARK  227  A    between atoms: _587  and  _588
REMARK  228  A    between atoms: _591  and  _593
REMARK  229  A    between atoms: _593  and  _594
REMARK  230  A    between atoms: _593  and  _596
REMARK  231  A    between atoms: _596  and  _597
REMARK  232  A    between atoms: _602  and  _604
REMARK  233  A    between atoms: _604  and  _605
REMARK  234  A    between atoms: _608  and  _610
REMARK  235  A    between atoms: _610  and  _611
REMARK  236  A    between atoms: _614  and  _615
REMARK  237  A    between atoms: _620  and  _622
REMARK  238  A    between atoms: _622  and  _623
REMARK  239  A    between atoms: _622  and  _625
REMARK  240  A    between atoms: _625  and  _626
REMARK  241  A    between atoms: _629  and  _631
REMARK  242  A    between atoms: _631  and  _632
REMARK  243  A    between atoms: _631  and  _634
REMARK  244  A    between atoms: _634  and  _635
REMARK  245  A    between atoms: _645  and  _647
REMARK  246  A    between atoms: _647  and  _648
REMARK  247  A    between atoms: _647  and  _650
REMARK  248  A    between atoms: _650  and  _651
REMARK  249  A    between atoms: _657  and  _658
REMARK  250  A    between atoms: _663  and  _665
REMARK  251  A    between atoms: _665  and  _666
REMARK  252  A    between atoms: _665  and  _668
REMARK  253  A    between atoms: _668  and  _669
REMARK  254  A    between atoms: _672  and  _674
REMARK  255  A    between atoms: _674  and  _675
REMARK  256  A    between atoms: _674  and  _677
REMARK  257  A    between atoms: _677  and  _678
REMARK  258  A    between atoms: _678  and  _679
REMARK  259  A    between atoms: _682  and  _684
REMARK  260  A    between atoms: _684  and  _685
REMARK  261  A    between atoms: _684  and  _687
REMARK  262  A    between atoms: _687  and  _688
REMARK  263  A    between atoms: _688  and  _689
REMARK  264  A    between atoms: _689  and  _690
REMARK  265  A    between atoms: _690  and  _691
REMARK  266  A    between atoms: _695  and  _697
REMARK  267  A    between atoms: _697  and  _698
REMARK  268  A    between atoms: _700  and  _702
REMARK  269  A    between atoms: _702  and  _703
REMARK  270  A    between atoms: _702  and  _705
REMARK  271  A    between atoms: _705  and  _706
REMARK  272  A    between atoms: _711  and  _713
REMARK  273  A    between atoms: _713  and  _714
REMARK  274  A    between atoms: _713  and  _716
REMARK  275  A    between atoms: _716  and  _717
REMARK  276  A    between atoms: _717  and  _718
REMARK  277  A    between atoms: _718  and  _719
REMARK  278  A    between atoms: _728  and  _730
REMARK  279  A    between atoms: _730  and  _731
REMARK  280  A    between atoms: _730  and  _733
REMARK  281  A    between atoms: _733  and  _734
REMARK  282  A    between atoms: _737  and  _739
REMARK  283  A    between atoms: _739  and  _740
REMARK  284  A    between atoms: _739  and  _742
REMARK  285  A    between atoms: _745  and  _747
REMARK  286  A    between atoms: _747  and  _748
REMARK  287  A    between atoms: _747  and  _750
REMARK  288  A    between atoms: _750  and  _751
REMARK  289  A    between atoms: _751  and  _752
REMARK  290  A    between atoms: _758  and  _759
REMARK  291  A    between atoms: _764  and  _766
REMARK  292  A    between atoms: _766  and  _767
REMARK  293  A    between atoms: _766  and  _769
REMARK  294  A    between atoms: _769  and  _770
REMARK  295  A    between atoms: _773  and  _775
REMARK  296  A    between atoms: _775  and  _776
REMARK  297  A    between atoms: _775  and  _778
REMARK  298  A    between atoms: _778  and  _779
REMARK  299  A    between atoms: _782  and  _784
REMARK  300  A    between atoms: _784  and  _785
REMARK  301  A    between atoms: _784  and  _787
REMARK  302  A    between atoms: _787  and  _788
REMARK  303  A    between atoms: _790  and  _792
REMARK  304  A    between atoms: _792  and  _793
REMARK  305  A    between atoms: _792  and  _795
REMARK  306  A    between atoms: _795  and  _796
REMARK  307  A    between atoms: _796  and  _797
REMARK  308  A    between atoms: _797  and  _798
REMARK  309  A    between atoms: _807  and  _809
REMARK  310  A    between atoms: _809  and  _810
REMARK                            x       y       z     vdW  Elec       q    Type
REMARK                         _______ _______ _______ _____ _____    ______ ____
ROOT
ATOM      1  O   HOH     1     -15.376 -34.538 -19.892  0.00  0.00    +0.000 OA
ENDROOT
TORSDOF 0
REMARK  Name = ../refined-set-2016/3rt4/3rt4_pocket.pdb
REMARK  310 active torsions:
REMARK  status: ('A' for Active; 'I' for Inactive)
REMARK    1  A    between atoms: _1  and  _3
REMARK    2  A    between atoms: _3  and  _4
REMARK    3  A    between atoms: _3  and  _6
REMARK    4  A    between atoms: _6  and  _7
REMARK    5  A    between atoms: _7  and  _8
REMARK    6  A    between atoms: _8  and  _9
REMARK    7  A    between atoms: _18  and  _20
REMARK    8  A    between atoms: _20  and  _21
REMARK    9  A    between atoms: _20  and  _23
REMARK   10  A    between atoms: _26  and  _28
REMARK   11  A    between atoms: _28  and  _29
REMARK   12  A    between atoms: _28  and  _31
REMARK   13  A    between atoms: _31  and  _32
REMARK   14  A    between atoms: _32  and  _33
REMARK   15  A    between atoms: _33  and  _34
REMARK   16  A    between atoms: _43  and  _45
REMARK   17  A    between atoms: _45  and  _46
REMARK   18  A    between atoms: _45  and  _48
REMARK   19  A    between atoms: _48  and  _49
REMARK   20  A    between atoms: _51  and  _53
REMARK   21  A    between atoms: _53  and  _54
REMARK   22  A    between atoms: _53  and  _56
REMARK   23  A    between atoms: _56  and  _57
REMARK   24  A    between atoms: _62  and  _64
REMARK   25  A    between atoms: _64  and  _65
REMARK   26  A    between atoms: _64  and  _67
REMARK   27  A    between atoms: _67  and  _68
REMARK   28  A    between atoms: _73  and  _74
REMARK   29  A    between atoms: _76  and  _78
REMARK   30  A    between atoms: _78  and  _79
REMARK   31  A    between atoms: _78  and  _81
REMARK   32  A    between atoms: _81  and  _82
REMARK   33  A    between atoms: _82  and  _83
REMARK   34  A    between atoms: _86  and  _88
REMARK   35  A    between atoms: _88  and  _89
REMARK   36  A    between atoms: _88  and  _91
REMARK   37  A    between atoms: _91  and  _92
REMARK   38  A    between atoms: _92  and  _93
REMARK   39  A    between atoms: _93  and  _94
REMARK   40  A    between atoms: _94  and  _95
REMARK   41  A    between atoms: _99  and  _101
REMARK   42  A    between atoms: _101  and  _102
REMARK   43  A    between atoms: _101  and  _104
REMARK   44  A    between atoms: _104  and  _105
REMARK   45  A    between atoms: _110  and  _111
REMARK   46  A    between atoms: _113  and  _115
REMARK   47  A    between atoms: _115  and  _116
REMARK   48  A    between atoms: _115  and  _118
REMARK   49  A    between atoms: _118  and  _119
REMARK   50  A    between atoms: _119  and  _120
REMARK   51  A    between atoms: _120  and  _121
REMARK   52  A    between atoms: _130  and  _132
REMARK   53  A    between atoms: _132  and  _133
REMARK   54  A    between atoms: _136  and  _138
REMARK   55  A    between atoms: _138  and  _139
REMARK   56  A    between atoms: _138  and  _141
REMARK   57  A    between atoms: _141  and  _142
REMARK   58  A    between atoms: _142  and  _258
REMARK   59  A    between atoms: _143  and  _145
REMARK   60  A    between atoms: _145  and  _146
REMARK   61  A    between atoms: _145  and  _148
REMARK   62  A    between atoms: _148  and  _149
REMARK   63  A    between atoms: _149  and  _150
REMARK   64  A    between atoms: _153  and  _155
REMARK   65  A    between atoms: _155  and  _156
REMARK   66  A    between atoms: _155  and  _158
REMARK   67  A    between atoms: _158  and  _159
REMARK   68  A    between atoms: _161  and  _163
REMARK   69  A    between atoms: _163  and  _164
REMARK   70  A    between atoms: _163  and  _166
REMARK   71  A    between atoms: _166  and  _167
REMARK   72  A    between atoms: _172  and  _173
REMARK   73  A    between atoms: _175  and  _177
REMARK   74  A    between atoms: _177  and  _178
REMARK   75  A    between atoms: _177  and  _180
REMARK   76  A    between atoms: _180  and  _181
REMARK   77  A    between atoms: _186  and  _188
REMARK   78  A    between atoms: _188  and  _189
REMARK   79  A    between atoms: _188  and  _191
REMARK   80  A    between atoms: _194  and  _196
REMARK   81  A    between atoms: _196  and  _197
REMARK   82  A    between atoms: _196  and  _199
REMARK   83  A    between atoms: _199  and  _200
REMARK   84  A    between atoms: _200  and  _201
REMARK   85  A    between atoms: _201  and  _202
REMARK   86  A    between atoms: _211  and  _213
REMARK   87  A    between atoms: _213  and  _214
REMARK   88  A    between atoms: _213  and  _216
REMARK   89  A    between atoms: _216  and  _217
REMARK   90  A    between atoms: _222  and  _224
REMARK   91  A    between atoms: _224  and  _225
REMARK   92  A    between atoms: _224  and  _227
REMARK   93  A    between atoms: _227  and  _228
REMARK   94  A    between atoms: _231  and  _233
REMARK   95  A    between atoms: _233  and  _234
REMARK   96  A    between atoms: _236  and  _238
REMARK   97  A    between atoms: _238  and  _239
REMARK   98  A    between atoms: _238  and  _241
REMARK   99  A    between atoms: _241  and  _242
REMARK  100  A    between atoms: _252  and  _254
REMARK  101  A    between atoms: _254  and  _255
REMARK  102  A    between atoms: _254  and  _257
REMARK  103  A    between atoms: _257  and  _258
REMARK  104  A    between atoms: _259  and  _261
REMARK  105  A    between atoms: _261  and  _262
REMARK  106  A    between atoms: _261  and  _264
REMARK  107  A    between atoms: _264  and  _265
REMARK  108  A    between atoms: _268  and  _270
REMARK  109  A    between atoms: _270  and  _271
REMARK  110  A    between atoms: _273  and  _275
REMARK  111  A    between atoms: _275  and  _276
REMARK  112  A    between atoms: _275  and  _278
REMARK  113  A    between atoms: _278  and  _279
REMARK  114  A    between atoms: _284  and  _285
REMARK  115  A    between atoms: _287  and  _289
REMARK  116  A    between atoms: _289  and  _290
REMARK  117  A    between atoms: _289  and  _292
REMARK  118  A    between atoms: _292  and  _293
REMARK  119  A    between atoms: _293  and  _294
REMARK  120  A    between atoms: _294  and  _295
REMARK  121  A    between atoms: _304  and  _306
REMARK  122  A    between atoms: _306  and  _307
REMARK  123  A    between atoms: _306  and  _309
REMARK  124  A    between atoms: _309  and  _310
REMARK  125  A    between atoms: _310  and  _311
REMARK  126  A    between atoms: _311  and  _312
REMARK  127  A    between atoms: _312  and  _313
REMARK  128  A    between atoms: _317  and  _319
REMARK  129  A    between atoms: _319  and  _320
REMARK  130  A    between atoms: _322  and  _324
REMARK  131  A    between atoms: _324  and  _325
REMARK  132  A    between atoms: _328  and  _330
REMARK  133  A    between atoms: _330  and  _331
REMARK  134  A    between atoms: _330  and  _333
REMARK  135  A    between atoms: _333  and  _334
REMARK  136  A    between atoms: _339  and  _341
REMARK  137  A    between atoms: _341  and  _342
REMARK  138  A    between atoms: _345  and  _347
REMARK  139  A    between atoms: _347  and  _348
REMARK  140  A    between atoms: _351  and  _352
REMARK  141  A    between atoms: _357  and  _359
REMARK  142  A    between atoms: _359  and  _360
REMARK  143  A    between atoms: _359  and  _362
REMARK  144  A    between atoms: _362  and  _363
REMARK  145  A    between atoms: _366  and  _368
REMARK  146  A    between atoms: _368  and  _369
REMARK  147  A    between atoms: _368  and  _371
REMARK  148  A    between atoms: _371  and  _372
REMARK  149  A    between atoms: _382  and  _384
REMARK  150  A    between atoms: _384  and  _385
REMARK  151  A    between atoms: _384  and  _387
REMARK  152  A    between atoms: _387  and  _388
REMARK  153  A    between atoms: _394  and  _395
REMARK  154  A    between atoms: _400  and  _402
REMARK  155  A    between atoms: _402  and  _403
REMARK  156  A    between atoms: _402  and  _405
REMARK  157  A    between atoms: _405  and  _406
REMARK  158  A    between atoms: _409  and  _411
REMARK  159  A    between atoms: _411  and  _412
REMARK  160  A    between atoms: _411  and  _414
REMARK  161  A    between atoms: _414  and  _415
REMARK  162  A    between atoms: _417  and  _419
REMARK  163  A    between atoms: _419  and  _420
REMARK  164  A    between atoms: _419  and  _422
REMARK  165  A    between atoms: _422  and  _423
REMARK  166  A    between atoms: _428  and  _430
REMARK  167  A    between atoms: _430  and  _431
REMARK  168  A    between atoms: _430  and  _433
REMARK  169  A    between atoms: _436  and  _438
REMARK  170  A    between atoms: _438  and  _439
REMARK  171  A    between atoms: _438  and  _441
REMARK  172  A    between atoms: _441  and  _442
REMARK  173  A    between atoms: _442  and  _443
REMARK  174  A    between atoms: _449  and  _450
REMARK  175  A    between atoms: _455  and  _457
REMARK  176  A    between atoms: _457  and  _458
REMARK  177  A    between atoms: _457  and  _460
REMARK  178  A    between atoms: _460  and  _461
REMARK  179  A    between atoms: _464  and  _466
REMARK  180  A    between atoms: _466  and  _467
REMARK  181  A    between atoms: _466  and  _469
REMARK  182  A    between atoms: _469  and  _470
REMARK  183  A    between atoms: _473  and  _475
REMARK  184  A    between atoms: _475  and  _476
REMARK  185  A    between atoms: _475  and  _478
REMARK  186  A    between atoms: _478  and  _479
REMARK  187  A    between atoms: _481  and  _483
REMARK  188  A    between atoms: _483  and  _484
REMARK  189  A    between atoms: _483  and  _486
REMARK  190  A    between atoms: _486  and  _487
REMARK  191  A    between atoms: _492  and  _493
REMARK  192  A    between atoms: _495  and  _497
REMARK  193  A    between atoms: _497  and  _498
REMARK  194  A    between atoms: _497  and  _500
REMARK  195  A    between atoms: _500  and  _501
REMARK  196  A    between atoms: _506  and  _508
REMARK  197  A    between atoms: _508  and  _509
REMARK  198  A    between atoms: _508  and  _511
REMARK  199  A    between atoms: _511  and  _512
REMARK  200  A    between atoms: _515  and  _517
REMARK  201  A    between atoms: _517  and  _518
REMARK  202  A    between atoms: _517  and  _520
REMARK  203  A    between atoms: _520  and  _521
REMARK  204  A    between atoms: _531  and  _533
REMARK  205  A    between atoms: _533  and  _534
REMARK  206  A    between atoms: _536  and  _538
REMARK  207  A    between atoms: _538  and  _539
REMARK  208  A    between atoms: _538  and  _541
REMARK  209  A    between atoms: _541  and  _542
REMARK  210  A    between atoms: _547  and  _548
REMARK  211  A    between atoms: _550  and  _552
REMARK  212  A    between atoms: _552  and  _553
REMARK  213  A    between atoms: _552  and  _555
REMARK  214  A    between atoms: _555  and  _556
REMARK  215  A    between atoms: _556  and  _557
REMARK  216  A    between atoms: _557  and  _558
REMARK  217  A    between atoms: _567  and  _569
REMARK  218  A    between atoms: _569  and  _570
REMARK  219  A    between atoms: _569  and  _572
REMARK  220  A    between atoms: _572  and  _573
REMARK  221  A    between atoms: _573  and  _574
REMARK  222  A    between atoms: _574  and  _575
REMARK  223  A    between atoms: _575  and  _576
REMARK  224  A    between atoms: _580  and  _582
REMARK  225  A    between atoms: _582  and  _583
REMARK  226  A    between atoms: _585  and  _587
REMARK  227  A    between atoms: _587  and  _588
REMARK  228  A    between atoms: _591  and  _593
REMARK  229  A    between atoms: _593  and  _594
REMARK  230  A    between atoms: _593  and  _596
REMARK  231  A    between atoms: _596  and  _597
REMARK  232  A    between atoms: _602  and  _604
REMARK  233  A    between atoms: _604  and  _605
REMARK  234  A    between atoms: _608  and  _610
REMARK  235  A    between atoms: _610  and  _611
REMARK  236  A    between atoms: _614  and  _615
REMARK  237  A    between atoms: _620  and  _622
REMARK  238  A    between atoms: _622  and  _623
REMARK  239  A    between atoms: _622  and  _625
REMARK  240  A    between atoms: _625  and  _626
REMARK  241  A    between atoms: _629  and  _631
REMARK  242  A    between atoms: _631  and  _632
REMARK  243  A    between atoms: _631  and  _634
REMARK  244  A    between atoms: _634  and  _635
REMARK  245  A    between atoms: _645  and  _647
REMARK  246  A    between atoms: _647  and  _648
REMARK  247  A    between atoms: _647  and  _650
REMARK  248  A    between atoms: _650  and  _651
REMARK  249  A    between atoms: _657  and  _658
REMARK  250  A    between atoms: _663  and  _665
REMARK  251  A    between atoms: _665  and  _666
REMARK  252  A    between atoms: _665  and  _668
REMARK  253  A    between atoms: _668  and  _669
REMARK  254  A    between atoms: _672  and  _674
REMARK  255  A    between atoms: _674  and  _675
REMARK  256  A    between atoms: _674  and  _677
REMARK  257  A    between atoms: _677  and  _678
REMARK  258  A    between atoms: _678  and  _679
REMARK  259  A    between atoms: _682  and  _684
REMARK  260  A    between atoms: _684  and  _685
REMARK  261  A    between atoms: _684  and  _687
REMARK  262  A    between atoms: _687  and  _688
REMARK  263  A    between atoms: _688  and  _689
REMARK  264  A    between atoms: _689  and  _690
REMARK  265  A    between atoms: _690  and  _691
REMARK  266  A    between atoms: _695  and  _697
REMARK  267  A    between atoms: _697  and  _698
REMARK  268  A    between atoms: _700  and  _702
REMARK  269  A    between atoms: _702  and  _703
REMARK  270  A    between atoms: _702  and  _705
REMARK  271  A    between atoms: _705  and  _706
REMARK  272  A    between atoms: _711  and  _713
REMARK  273  A    between atoms: _713  and  _714
REMARK  274  A    between atoms: _713  and  _716
REMARK  275  A    between atoms: _716  and  _717
REMARK  276  A    between atoms: _717  and  _718
REMARK  277  A    between atoms: _718  and  _719
REMARK  278  A    between atoms: _728  and  _730
REMARK  279  A    between atoms: _730  and  _731
REMARK  280  A    between atoms: _730  and  _733
REMARK  281  A    between atoms: _733  and  _734
REMARK  282  A    between atoms: _737  and  _739
REMARK  283  A    between atoms: _739  and  _740
REMARK  284  A    between atoms: _739  and  _742
REMARK  285  A    between atoms: _745  and  _747
REMARK  286  A    between atoms: _747  and  _748
REMARK  287  A    between atoms: _747  and  _750
REMARK  288  A    between atoms: _750  and  _751
REMARK  289  A    between atoms: _751  and  _752
REMARK  290  A    between atoms: _758  and  _759
REMARK  291  A    between atoms: _764  and  _766
REMARK  292  A    between atoms: _766  and  _767
REMARK  293  A    between atoms: _766  and  _769
REMARK  294  A    between atoms: _769  and  _770
REMARK  295  A    between atoms: _773  and  _775
REMARK  296  A    between atoms: _775  and  _776
REMARK  297  A    between atoms: _775  and  _778
REMARK  298  A    between atoms: _778  and  _779
REMARK  299  A    between atoms: _782  and  _784
REMARK  300  A    between atoms: _784  and  _785
REMARK  301  A    between atoms: _784  and  _787
REMARK  302  A    between atoms: _787  and  _788
REMARK  303  A    between atoms: _790  and  _792
REMARK  304  A    between atoms: _792  and  _793
REMARK  305  A    between atoms: _792  and  _795
REMARK  306  A    between atoms: _795  and  _796
REMARK  307  A    between atoms: _796  and  _797
REMARK  308  A    between atoms: _797  and  _798
REMARK  309  A    between atoms: _807  and  _809
REMARK  310  A    between atoms: _809  and  _810
REMARK                            x       y       z     vdW  Elec       q    Type
REMARK                         _______ _______ _______ _____ _____    ______ ____
ROOT
ATOM      1  O   HOH     1     -18.330 -26.886 -23.170  0.00  0.00    +0.000 OA
ENDROOT
TORSDOF 0
REMARK  Name = ../refined-set-2016/3rt4/3rt4_pocket.pdb
REMARK  310 active torsions:
REMARK  status: ('A' for Active; 'I' for Inactive)
REMARK    1  A    between atoms: _1  and  _3
REMARK    2  A    between atoms: _3  and  _4
REMARK    3  A    between atoms: _3  and  _6
REMARK    4  A    between atoms: _6  and  _7
REMARK    5  A    between atoms: _7  and  _8
REMARK    6  A    between atoms: _8  and  _9
REMARK    7  A    between atoms: _18  and  _20
REMARK    8  A    between atoms: _20  and  _21
REMARK    9  A    between atoms: _20  and  _23
REMARK   10  A    between atoms: _26  and  _28
REMARK   11  A    between atoms: _28  and  _29
REMARK   12  A    between atoms: _28  and  _31
REMARK   13  A    between atoms: _31  and  _32
REMARK   14  A    between atoms: _32  and  _33
REMARK   15  A    between atoms: _33  and  _34
REMARK   16  A    between atoms: _43  and  _45
REMARK   17  A    between atoms: _45  and  _46
REMARK   18  A    between atoms: _45  and  _48
REMARK   19  A    between atoms: _48  and  _49
REMARK   20  A    between atoms: _51  and  _53
REMARK   21  A    between atoms: _53  and  _54
REMARK   22  A    between atoms: _53  and  _56
REMARK   23  A    between atoms: _56  and  _57
REMARK   24  A    between atoms: _62  and  _64
REMARK   25  A    between atoms: _64  and  _65
REMARK   26  A    between atoms: _64  and  _67
REMARK   27  A    between atoms: _67  and  _68
REMARK   28  A    between atoms: _73  and  _74
REMARK   29  A    between atoms: _76  and  _78
REMARK   30  A    between atoms: _78  and  _79
REMARK   31  A    between atoms: _78  and  _81
REMARK   32  A    between atoms: _81  and  _82
REMARK   33  A    between atoms: _82  and  _83
REMARK   34  A    between atoms: _86  and  _88
REMARK   35  A    between atoms: _88  and  _89
REMARK   36  A    between atoms: _88  and  _91
REMARK   37  A    between atoms: _91  and  _92
REMARK   38  A    between atoms: _92  and  _93
REMARK   39  A    between atoms: _93  and  _94
REMARK   40  A    between atoms: _94  and  _95
REMARK   41  A    between atoms: _99  and  _101
REMARK   42  A    between atoms: _101  and  _102
REMARK   43  A    between atoms: _101  and  _104
REMARK   44  A    between atoms: _104  and  _105
REMARK   45  A    between atoms: _110  and  _111
REMARK   46  A    between atoms: _113  and  _115
REMARK   47  A    between atoms: _115  and  _116
REMARK   48  A    between atoms: _115  and  _118
REMARK   49  A    between atoms: _118  and  _119
REMARK   50  A    between atoms: _119  and  _120
REMARK   51  A    between atoms: _120  and  _121
REMARK   52  A    between atoms: _130  and  _132
REMARK   53  A    between atoms: _132  and  _133
REMARK   54  A    between atoms: _136  and  _138
REMARK   55  A    between atoms: _138  and  _139
REMARK   56  A    between atoms: _138  and  _141
REMARK   57  A    between atoms: _141  and  _142
REMARK   58  A    between atoms: _142  and  _258
REMARK   59  A    between atoms: _143  and  _145
REMARK   60  A    between atoms: _145  and  _146
REMARK   61  A    between atoms: _145  and  _148
REMARK   62  A    between atoms: _148  and  _149
REMARK   63  A    between atoms: _149  and  _150
REMARK   64  A    between atoms: _153  and  _155
REMARK   65  A    between atoms: _155  and  _156
REMARK   66  A    between atoms: _155  and  _158
REMARK   67  A    between atoms: _158  and  _159
REMARK   68  A    between atoms: _161  and  _163
REMARK   69  A    between atoms: _163  and  _164
REMARK   70  A    between atoms: _163  and  _166
REMARK   71  A    between atoms: _166  and  _167
REMARK   72  A    between atoms: _172  and  _173
REMARK   73  A    between atoms: _175  and  _177
REMARK   74  A    between atoms: _177  and  _178
REMARK   75  A    between atoms: _177  and  _180
REMARK   76  A    between atoms: _180  and  _181
REMARK   77  A    between atoms: _186  and  _188
REMARK   78  A    between atoms: _188  and  _189
REMARK   79  A    between atoms: _188  and  _191
REMARK   80  A    between atoms: _194  and  _196
REMARK   81  A    between atoms: _196  and  _197
REMARK   82  A    between atoms: _196  and  _199
REMARK   83  A    between atoms: _199  and  _200
REMARK   84  A    between atoms: _200  and  _201
REMARK   85  A    between atoms: _201  and  _202
REMARK   86  A    between atoms: _211  and  _213
REMARK   87  A    between atoms: _213  and  _214
REMARK   88  A    between atoms: _213  and  _216
REMARK   89  A    between atoms: _216  and  _217
REMARK   90  A    between atoms: _222  and  _224
REMARK   91  A    between atoms: _224  and  _225
REMARK   92  A    between atoms: _224  and  _227
REMARK   93  A    between atoms: _227  and  _228
REMARK   94  A    between atoms: _231  and  _233
REMARK   95  A    between atoms: _233  and  _234
REMARK   96  A    between atoms: _236  and  _238
REMARK   97  A    between atoms: _238  and  _239
REMARK   98  A    between atoms: _238  and  _241
REMARK   99  A    between atoms: _241  and  _242
REMARK  100  A    between atoms: _252  and  _254
REMARK  101  A    between atoms: _254  and  _255
REMARK  102  A    between atoms: _254  and  _257
REMARK  103  A    between atoms: _257  and  _258
REMARK  104  A    between atoms: _259  and  _261
REMARK  105  A    between atoms: _261  and  _262
REMARK  106  A    between atoms: _261  and  _264
REMARK  107  A    between atoms: _264  and  _265
REMARK  108  A    between atoms: _268  and  _270
REMARK  109  A    between atoms: _270  and  _271
REMARK  110  A    between atoms: _273  and  _275
REMARK  111  A    between atoms: _275  and  _276
REMARK  112  A    between atoms: _275  and  _278
REMARK  113  A    between atoms: _278  and  _279
REMARK  114  A    between atoms: _284  and  _285
REMARK  115  A    between atoms: _287  and  _289
REMARK  116  A    between atoms: _289  and  _290
REMARK  117  A    between atoms: _289  and  _292
REMARK  118  A    between atoms: _292  and  _293
REMARK  119  A    between atoms: _293  and  _294
REMARK  120  A    between atoms: _294  and  _295
REMARK  121  A    between atoms: _304  and  _306
REMARK  122  A    between atoms: _306  and  _307
REMARK  123  A    between atoms: _306  and  _309
REMARK  124  A    between atoms: _309  and  _310
REMARK  125  A    between atoms: _310  and  _311
REMARK  126  A    between atoms: _311  and  _312
REMARK  127  A    between atoms: _312  and  _313
REMARK  128  A    between atoms: _317  and  _319
REMARK  129  A    between atoms: _319  and  _320
REMARK  130  A    between atoms: _322  and  _324
REMARK  131  A    between atoms: _324  and  _325
REMARK  132  A    between atoms: _328  and  _330
REMARK  133  A    between atoms: _330  and  _331
REMARK  134  A    between atoms: _330  and  _333
REMARK  135  A    between atoms: _333  and  _334
REMARK  136  A    between atoms: _339  and  _341
REMARK  137  A    between atoms: _341  and  _342
REMARK  138  A    between atoms: _345  and  _347
REMARK  139  A    between atoms: _347  and  _348
REMARK  140  A    between atoms: _351  and  _352
REMARK  141  A    between atoms: _357  and  _359
REMARK  142  A    between atoms: _359  and  _360
REMARK  143  A    between atoms: _359  and  _362
REMARK  144  A    between atoms: _362  and  _363
REMARK  145  A    between atoms: _366  and  _368
REMARK  146  A    between atoms: _368  and  _369
REMARK  147  A    between atoms: _368  and  _371
REMARK  148  A    between atoms: _371  and  _372
REMARK  149  A    between atoms: _382  and  _384
REMARK  150  A    between atoms: _384  and  _385
REMARK  151  A    between atoms: _384  and  _387
REMARK  152  A    between atoms: _387  and  _388
REMARK  153  A    between atoms: _394  and  _395
REMARK  154  A    between atoms: _400  and  _402
REMARK  155  A    between atoms: _402  and  _403
REMARK  156  A    between atoms: _402  and  _405
REMARK  157  A    between atoms: _405  and  _406
REMARK  158  A    between atoms: _409  and  _411
REMARK  159  A    between atoms: _411  and  _412
REMARK  160  A    between atoms: _411  and  _414
REMARK  161  A    between atoms: _414  and  _415
REMARK  162  A    between atoms: _417  and  _419
REMARK  163  A    between atoms: _419  and  _420
REMARK  164  A    between atoms: _419  and  _422
REMARK  165  A    between atoms: _422  and  _423
REMARK  166  A    between atoms: _428  and  _430
REMARK  167  A    between atoms: _430  and  _431
REMARK  168  A    between atoms: _430  and  _433
REMARK  169  A    between atoms: _436  and  _438
REMARK  170  A    between atoms: _438  and  _439
REMARK  171  A    between atoms: _438  and  _441
REMARK  172  A    between atoms: _441  and  _442
REMARK  173  A    between atoms: _442  and  _443
REMARK  174  A    between atoms: _449  and  _450
REMARK  175  A    between atoms: _455  and  _457
REMARK  176  A    between atoms: _457  and  _458
REMARK  177  A    between atoms: _457  and  _460
REMARK  178  A    between atoms: _460  and  _461
REMARK  179  A    between atoms: _464  and  _466
REMARK  180  A    between atoms: _466  and  _467
REMARK  181  A    between atoms: _466  and  _469
REMARK  182  A    between atoms: _469  and  _470
REMARK  183  A    between atoms: _473  and  _475
REMARK  184  A    between atoms: _475  and  _476
REMARK  185  A    between atoms: _475  and  _478
REMARK  186  A    between atoms: _478  and  _479
REMARK  187  A    between atoms: _481  and  _483
REMARK  188  A    between atoms: _483  and  _484
REMARK  189  A    between atoms: _483  and  _486
REMARK  190  A    between atoms: _486  and  _487
REMARK  191  A    between atoms: _492  and  _493
REMARK  192  A    between atoms: _495  and  _497
REMARK  193  A    between atoms: _497  and  _498
REMARK  194  A    between atoms: _497  and  _500
REMARK  195  A    between atoms: _500  and  _501
REMARK  196  A    between atoms: _506  and  _508
REMARK  197  A    between atoms: _508  and  _509
REMARK  198  A    between atoms: _508  and  _511
REMARK  199  A    between atoms: _511  and  _512
REMARK  200  A    between atoms: _515  and  _517
REMARK  201  A    between atoms: _517  and  _518
REMARK  202  A    between atoms: _517  and  _520
REMARK  203  A    between atoms: _520  and  _521
REMARK  204  A    between atoms: _531  and  _533
REMARK  205  A    between atoms: _533  and  _534
REMARK  206  A    between atoms: _536  and  _538
REMARK  207  A    between atoms: _538  and  _539
REMARK  208  A    between atoms: _538  and  _541
REMARK  209  A    between atoms: _541  and  _542
REMARK  210  A    between atoms: _547  and  _548
REMARK  211  A    between atoms: _550  and  _552
REMARK  212  A    between atoms: _552  and  _553
REMARK  213  A    between atoms: _552  and  _555
REMARK  214  A    between atoms: _555  and  _556
REMARK  215  A    between atoms: _556  and  _557
REMARK  216  A    between atoms: _557  and  _558
REMARK  217  A    between atoms: _567  and  _569
REMARK  218  A    between atoms: _569  and  _570
REMARK  219  A    between atoms: _569  and  _572
REMARK  220  A    between atoms: _572  and  _573
REMARK  221  A    between atoms: _573  and  _574
REMARK  222  A    between atoms: _574  and  _575
REMARK  223  A    between atoms: _575  and  _576
REMARK  224  A    between atoms: _580  and  _582
REMARK  225  A    between atoms: _582  and  _583
REMARK  226  A    between atoms: _585  and  _587
REMARK  227  A    between atoms: _587  and  _588
REMARK  228  A    between atoms: _591  and  _593
REMARK  229  A    between atoms: _593  and  _594
REMARK  230  A    between atoms: _593  and  _596
REMARK  231  A    between atoms: _596  and  _597
REMARK  232  A    between atoms: _602  and  _604
REMARK  233  A    between atoms: _604  and  _605
REMARK  234  A    between atoms: _608  and  _610
REMARK  235  A    between atoms: _610  and  _611
REMARK  236  A    between atoms: _614  and  _615
REMARK  237  A    between atoms: _620  and  _622
REMARK  238  A    between atoms: _622  and  _623
REMARK  239  A    between atoms: _622  and  _625
REMARK  240  A    between atoms: _625  and  _626
REMARK  241  A    between atoms: _629  and  _631
REMARK  242  A    between atoms: _631  and  _632
REMARK  243  A    between atoms: _631  and  _634
REMARK  244  A    between atoms: _634  and  _635
REMARK  245  A    between atoms: _645  and  _647
REMARK  246  A    between atoms: _647  and  _648
REMARK  247  A    between atoms: _647  and  _650
REMARK  248  A    between atoms: _650  and  _651
REMARK  249  A    between atoms: _657  and  _658
REMARK  250  A    between atoms: _663  and  _665
REMARK  251  A    between atoms: _665  and  _666
REMARK  252  A    between atoms: _665  and  _668
REMARK  253  A    between atoms: _668  and  _669
REMARK  254  A    between atoms: _672  and  _674
REMARK  255  A    between atoms: _674  and  _675
REMARK  256  A    between atoms: _674  and  _677
REMARK  257  A    between atoms: _677  and  _678
REMARK  258  A    between atoms: _678  and  _679
REMARK  259  A    between atoms: _682  and  _684
REMARK  260  A    between atoms: _684  and  _685
REMARK  261  A    between atoms: _684  and  _687
REMARK  262  A    between atoms: _687  and  _688
REMARK  263  A    between atoms: _688  and  _689
REMARK  264  A    between atoms: _689  and  _690
REMARK  265  A    between atoms: _690  and  _691
REMARK  266  A    between atoms: _695  and  _697
REMARK  267  A    between atoms: _697  and  _698
REMARK  268  A    between atoms: _700  and  _702
REMARK  269  A    between atoms: _702  and  _703
REMARK  270  A    between atoms: _702  and  _705
REMARK  271  A    between atoms: _705  and  _706
REMARK  272  A    between atoms: _711  and  _713
REMARK  273  A    between atoms: _713  and  _714
REMARK  274  A    between atoms: _713  and  _716
REMARK  275  A    between atoms: _716  and  _717
REMARK  276  A    between atoms: _717  and  _718
REMARK  277  A    between atoms: _718  and  _719
REMARK  278  A    between atoms: _728  and  _730
REMARK  279  A    between atoms: _730  and  _731
REMARK  280  A    between atoms: _730  and  _733
REMARK  281  A    between atoms: _733  and  _734
REMARK  282  A    between atoms: _737  and  _739
REMARK  283  A    between atoms: _739  and  _740
REMARK  284  A    between atoms: _739  and  _742
REMARK  285  A    between atoms: _745  and  _747
REMARK  286  A    between atoms: _747  and  _748
REMARK  287  A    between atoms: _747  and  _750
REMARK  288  A    between atoms: _750  and  _751
REMARK  289  A    between atoms: _751  and  _752
REMARK  290  A    between atoms: _758  and  _759
REMARK  291  A    between atoms: _764  and  _766
REMARK  292  A    between atoms: _766  and  _767
REMARK  293  A    between atoms: _766  and  _769
REMARK  294  A    between atoms: _769  and  _770
REMARK  295  A    between atoms: _773  and  _775
REMARK  296  A    between atoms: _775  and  _776
REMARK  297  A    between atoms: _775  and  _778
REMARK  298  A    between atoms: _778  and  _779
REMARK  299  A    between atoms: _782  and  _784
REMARK  300  A    between atoms: _784  and  _785
REMARK  301  A    between atoms: _784  and  _787
REMARK  302  A    between atoms: _787  and  _788
REMARK  303  A    between atoms: _790  and  _792
REMARK  304  A    between atoms: _792  and  _793
REMARK  305  A    between atoms: _792  and  _795
REMARK  306  A    between atoms: _795  and  _796
REMARK  307  A    between atoms: _796  and  _797
REMARK  308  A    between atoms: _797  and  _798
REMARK  309  A    between atoms: _807  and  _809
REMARK  310  A    between atoms: _809  and  _810
REMARK                            x       y       z     vdW  Elec       q    Type
REMARK                         _______ _______ _______ _____ _____    ______ ____
ROOT
ATOM      1  O   HOH     1     -32.409 -26.113 -10.667  0.00  0.00    +0.000 OA
ENDROOT
TORSDOF 0
REMARK  Name = ../refined-set-2016/3rt4/3rt4_pocket.pdb
REMARK  310 active torsions:
REMARK  status: ('A' for Active; 'I' for Inactive)
REMARK    1  A    between atoms: _1  and  _3
REMARK    2  A    between atoms: _3  and  _4
REMARK    3  A    between atoms: _3  and  _6
REMARK    4  A    between atoms: _6  and  _7
REMARK    5  A    between atoms: _7  and  _8
REMARK    6  A    between atoms: _8  and  _9
REMARK    7  A    between atoms: _18  and  _20
REMARK    8  A    between atoms: _20  and  _21
REMARK    9  A    between atoms: _20  and  _23
REMARK   10  A    between atoms: _26  and  _28
REMARK   11  A    between atoms: _28  and  _29
REMARK   12  A    between atoms: _28  and  _31
REMARK   13  A    between atoms: _31  and  _32
REMARK   14  A    between atoms: _32  and  _33
REMARK   15  A    between atoms: _33  and  _34
REMARK   16  A    between atoms: _43  and  _45
REMARK   17  A    between atoms: _45  and  _46
REMARK   18  A    between atoms: _45  and  _48
REMARK   19  A    between atoms: _48  and  _49
REMARK   20  A    between atoms: _51  and  _53
REMARK   21  A    between atoms: _53  and  _54
REMARK   22  A    between atoms: _53  and  _56
REMARK   23  A    between atoms: _56  and  _57
REMARK   24  A    between atoms: _62  and  _64
REMARK   25  A    between atoms: _64  and  _65
REMARK   26  A    between atoms: _64  and  _67
REMARK   27  A    between atoms: _67  and  _68
REMARK   28  A    between atoms: _73  and  _74
REMARK   29  A    between atoms: _76  and  _78
REMARK   30  A    between atoms: _78  and  _79
REMARK   31  A    between atoms: _78  and  _81
REMARK   32  A    between atoms: _81  and  _82
REMARK   33  A    between atoms: _82  and  _83
REMARK   34  A    between atoms: _86  and  _88
REMARK   35  A    between atoms: _88  and  _89
REMARK   36  A    between atoms: _88  and  _91
REMARK   37  A    between atoms: _91  and  _92
REMARK   38  A    between atoms: _92  and  _93
REMARK   39  A    between atoms: _93  and  _94
REMARK   40  A    between atoms: _94  and  _95
REMARK   41  A    between atoms: _99  and  _101
REMARK   42  A    between atoms: _101  and  _102
REMARK   43  A    between atoms: _101  and  _104
REMARK   44  A    between atoms: _104  and  _105
REMARK   45  A    between atoms: _110  and  _111
REMARK   46  A    between atoms: _113  and  _115
REMARK   47  A    between atoms: _115  and  _116
REMARK   48  A    between atoms: _115  and  _118
REMARK   49  A    between atoms: _118  and  _119
REMARK   50  A    between atoms: _119  and  _120
REMARK   51  A    between atoms: _120  and  _121
REMARK   52  A    between atoms: _130  and  _132
REMARK   53  A    between atoms: _132  and  _133
REMARK   54  A    between atoms: _136  and  _138
REMARK   55  A    between atoms: _138  and  _139
REMARK   56  A    between atoms: _138  and  _141
REMARK   57  A    between atoms: _141  and  _142
REMARK   58  A    between atoms: _142  and  _258
REMARK   59  A    between atoms: _143  and  _145
REMARK   60  A    between atoms: _145  and  _146
REMARK   61  A    between atoms: _145  and  _148
REMARK   62  A    between atoms: _148  and  _149
REMARK   63  A    between atoms: _149  and  _150
REMARK   64  A    between atoms: _153  and  _155
REMARK   65  A    between atoms: _155  and  _156
REMARK   66  A    between atoms: _155  and  _158
REMARK   67  A    between atoms: _158  and  _159
REMARK   68  A    between atoms: _161  and  _163
REMARK   69  A    between atoms: _163  and  _164
REMARK   70  A    between atoms: _163  and  _166
REMARK   71  A    between atoms: _166  and  _167
REMARK   72  A    between atoms: _172  and  _173
REMARK   73  A    between atoms: _175  and  _177
REMARK   74  A    between atoms: _177  and  _178
REMARK   75  A    between atoms: _177  and  _180
REMARK   76  A    between atoms: _180  and  _181
REMARK   77  A    between atoms: _186  and  _188
REMARK   78  A    between atoms: _188  and  _189
REMARK   79  A    between atoms: _188  and  _191
REMARK   80  A    between atoms: _194  and  _196
REMARK   81  A    between atoms: _196  and  _197
REMARK   82  A    between atoms: _196  and  _199
REMARK   83  A    between atoms: _199  and  _200
REMARK   84  A    between atoms: _200  and  _201
REMARK   85  A    between atoms: _201  and  _202
REMARK   86  A    between atoms: _211  and  _213
REMARK   87  A    between atoms: _213  and  _214
REMARK   88  A    between atoms: _213  and  _216
REMARK   89  A    between atoms: _216  and  _217
REMARK   90  A    between atoms: _222  and  _224
REMARK   91  A    between atoms: _224  and  _225
REMARK   92  A    between atoms: _224  and  _227
REMARK   93  A    between atoms: _227  and  _228
REMARK   94  A    between atoms: _231  and  _233
REMARK   95  A    between atoms: _233  and  _234
REMARK   96  A    between atoms: _236  and  _238
REMARK   97  A    between atoms: _238  and  _239
REMARK   98  A    between atoms: _238  and  _241
REMARK   99  A    between atoms: _241  and  _242
REMARK  100  A    between atoms: _252  and  _254
REMARK  101  A    between atoms: _254  and  _255
REMARK  102  A    between atoms: _254  and  _257
REMARK  103  A    between atoms: _257  and  _258
REMARK  104  A    between atoms: _259  and  _261
REMARK  105  A    between atoms: _261  and  _262
REMARK  106  A    between atoms: _261  and  _264
REMARK  107  A    between atoms: _264  and  _265
REMARK  108  A    between atoms: _268  and  _270
REMARK  109  A    between atoms: _270  and  _271
REMARK  110  A    between atoms: _273  and  _275
REMARK  111  A    between atoms: _275  and  _276
REMARK  112  A    between atoms: _275  and  _278
REMARK  113  A    between atoms: _278  and  _279
REMARK  114  A    between atoms: _284  and  _285
REMARK  115  A    between atoms: _287  and  _289
REMARK  116  A    between atoms: _289  and  _290
REMARK  117  A    between atoms: _289  and  _292
REMARK  118  A    between atoms: _292  and  _293
REMARK  119  A    between atoms: _293  and  _294
REMARK  120  A    between atoms: _294  and  _295
REMARK  121  A    between atoms: _304  and  _306
REMARK  122  A    between atoms: _306  and  _307
REMARK  123  A    between atoms: _306  and  _309
REMARK  124  A    between atoms: _309  and  _310
REMARK  125  A    between atoms: _310  and  _311
REMARK  126  A    between atoms: _311  and  _312
REMARK  127  A    between atoms: _312  and  _313
REMARK  128  A    between atoms: _317  and  _319
REMARK  129  A    between atoms: _319  and  _320
REMARK  130  A    between atoms: _322  and  _324
REMARK  131  A    between atoms: _324  and  _325
REMARK  132  A    between atoms: _328  and  _330
REMARK  133  A    between atoms: _330  and  _331
REMARK  134  A    between atoms: _330  and  _333
REMARK  135  A    between atoms: _333  and  _334
REMARK  136  A    between atoms: _339  and  _341
REMARK  137  A    between atoms: _341  and  _342
REMARK  138  A    between atoms: _345  and  _347
REMARK  139  A    between atoms: _347  and  _348
REMARK  140  A    between atoms: _351  and  _352
REMARK  141  A    between atoms: _357  and  _359
REMARK  142  A    between atoms: _359  and  _360
REMARK  143  A    between atoms: _359  and  _362
REMARK  144  A    between atoms: _362  and  _363
REMARK  145  A    between atoms: _366  and  _368
REMARK  146  A    between atoms: _368  and  _369
REMARK  147  A    between atoms: _368  and  _371
REMARK  148  A    between atoms: _371  and  _372
REMARK  149  A    between atoms: _382  and  _384
REMARK  150  A    between atoms: _384  and  _385
REMARK  151  A    between atoms: _384  and  _387
REMARK  152  A    between atoms: _387  and  _388
REMARK  153  A    between atoms: _394  and  _395
REMARK  154  A    between atoms: _400  and  _402
REMARK  155  A    between atoms: _402  and  _403
REMARK  156  A    between atoms: _402  and  _405
REMARK  157  A    between atoms: _405  and  _406
REMARK  158  A    between atoms: _409  and  _411
REMARK  159  A    between atoms: _411  and  _412
REMARK  160  A    between atoms: _411  and  _414
REMARK  161  A    between atoms: _414  and  _415
REMARK  162  A    between atoms: _417  and  _419
REMARK  163  A    between atoms: _419  and  _420
REMARK  164  A    between atoms: _419  and  _422
REMARK  165  A    between atoms: _422  and  _423
REMARK  166  A    between atoms: _428  and  _430
REMARK  167  A    between atoms: _430  and  _431
REMARK  168  A    between atoms: _430  and  _433
REMARK  169  A    between atoms: _436  and  _438
REMARK  170  A    between atoms: _438  and  _439
REMARK  171  A    between atoms: _438  and  _441
REMARK  172  A    between atoms: _441  and  _442
REMARK  173  A    between atoms: _442  and  _443
REMARK  174  A    between atoms: _449  and  _450
REMARK  175  A    between atoms: _455  and  _457
REMARK  176  A    between atoms: _457  and  _458
REMARK  177  A    between atoms: _457  and  _460
REMARK  178  A    between atoms: _460  and  _461
REMARK  179  A    between atoms: _464  and  _466
REMARK  180  A    between atoms: _466  and  _467
REMARK  181  A    between atoms: _466  and  _469
REMARK  182  A    between atoms: _469  and  _470
REMARK  183  A    between atoms: _473  and  _475
REMARK  184  A    between atoms: _475  and  _476
REMARK  185  A    between atoms: _475  and  _478
REMARK  186  A    between atoms: _478  and  _479
REMARK  187  A    between atoms: _481  and  _483
REMARK  188  A    between atoms: _483  and  _484
REMARK  189  A    between atoms: _483  and  _486
REMARK  190  A    between atoms: _486  and  _487
REMARK  191  A    between atoms: _492  and  _493
REMARK  192  A    between atoms: _495  and  _497
REMARK  193  A    between atoms: _497  and  _498
REMARK  194  A    between atoms: _497  and  _500
REMARK  195  A    between atoms: _500  and  _501
REMARK  196  A    between atoms: _506  and  _508
REMARK  197  A    between atoms: _508  and  _509
REMARK  198  A    between atoms: _508  and  _511
REMARK  199  A    between atoms: _511  and  _512
REMARK  200  A    between atoms: _515  and  _517
REMARK  201  A    between atoms: _517  and  _518
REMARK  202  A    between atoms: _517  and  _520
REMARK  203  A    between atoms: _520  and  _521
REMARK  204  A    between atoms: _531  and  _533
REMARK  205  A    between atoms: _533  and  _534
REMARK  206  A    between atoms: _536  and  _538
REMARK  207  A    between atoms: _538  and  _539
REMARK  208  A    between atoms: _538  and  _541
REMARK  209  A    between atoms: _541  and  _542
REMARK  210  A    between atoms: _547  and  _548
REMARK  211  A    between atoms: _550  and  _552
REMARK  212  A    between atoms: _552  and  _553
REMARK  213  A    between atoms: _552  and  _555
REMARK  214  A    between atoms: _555  and  _556
REMARK  215  A    between atoms: _556  and  _557
REMARK  216  A    between atoms: _557  and  _558
REMARK  217  A    between atoms: _567  and  _569
REMARK  218  A    between atoms: _569  and  _570
REMARK  219  A    between atoms: _569  and  _572
REMARK  220  A    between atoms: _572  and  _573
REMARK  221  A    between atoms: _573  and  _574
REMARK  222  A    between atoms: _574  and  _575
REMARK  223  A    between atoms: _575  and  _576
REMARK  224  A    between atoms: _580  and  _582
REMARK  225  A    between atoms: _582  and  _583
REMARK  226  A    between atoms: _585  and  _587
REMARK  227  A    between atoms: _587  and  _588
REMARK  228  A    between atoms: _591  and  _593
REMARK  229  A    between atoms: _593  and  _594
REMARK  230  A    between atoms: _593  and  _596
REMARK  231  A    between atoms: _596  and  _597
REMARK  232  A    between atoms: _602  and  _604
REMARK  233  A    between atoms: _604  and  _605
REMARK  234  A    between atoms: _608  and  _610
REMARK  235  A    between atoms: _610  and  _611
REMARK  236  A    between atoms: _614  and  _615
REMARK  237  A    between atoms: _620  and  _622
REMARK  238  A    between atoms: _622  and  _623
REMARK  239  A    between atoms: _622  and  _625
REMARK  240  A    between atoms: _625  and  _626
REMARK  241  A    between atoms: _629  and  _631
REMARK  242  A    between atoms: _631  and  _632
REMARK  243  A    between atoms: _631  and  _634
REMARK  244  A    between atoms: _634  and  _635
REMARK  245  A    between atoms: _645  and  _647
REMARK  246  A    between atoms: _647  and  _648
REMARK  247  A    between atoms: _647  and  _650
REMARK  248  A    between atoms: _650  and  _651
REMARK  249  A    between atoms: _657  and  _658
REMARK  250  A    between atoms: _663  and  _665
REMARK  251  A    between atoms: _665  and  _666
REMARK  252  A    between atoms: _665  and  _668
REMARK  253  A    between atoms: _668  and  _669
REMARK  254  A    between atoms: _672  and  _674
REMARK  255  A    between atoms: _674  and  _675
REMARK  256  A    between atoms: _674  and  _677
REMARK  257  A    between atoms: _677  and  _678
REMARK  258  A    between atoms: _678  and  _679
REMARK  259  A    between atoms: _682  and  _684
REMARK  260  A    between atoms: _684  and  _685
REMARK  261  A    between atoms: _684  and  _687
REMARK  262  A    between atoms: _687  and  _688
REMARK  263  A    between atoms: _688  and  _689
REMARK  264  A    between atoms: _689  and  _690
REMARK  265  A    between atoms: _690  and  _691
REMARK  266  A    between atoms: _695  and  _697
REMARK  267  A    between atoms: _697  and  _698
REMARK  268  A    between atoms: _700  and  _702
REMARK  269  A    between atoms: _702  and  _703
REMARK  270  A    between atoms: _702  and  _705
REMARK  271  A    between atoms: _705  and  _706
REMARK  272  A    between atoms: _711  and  _713
REMARK  273  A    between atoms: _713  and  _714
REMARK  274  A    between atoms: _713  and  _716
REMARK  275  A    between atoms: _716  and  _717
REMARK  276  A    between atoms: _717  and  _718
REMARK  277  A    between atoms: _718  and  _719
REMARK  278  A    between atoms: _728  and  _730
REMARK  279  A    between atoms: _730  and  _731
REMARK  280  A    between atoms: _730  and  _733
REMARK  281  A    between atoms: _733  and  _734
REMARK  282  A    between atoms: _737  and  _739
REMARK  283  A    between atoms: _739  and  _740
REMARK  284  A    between atoms: _739  and  _742
REMARK  285  A    between atoms: _745  and  _747
REMARK  286  A    between atoms: _747  and  _748
REMARK  287  A    between atoms: _747  and  _750
REMARK  288  A    between atoms: _750  and  _751
REMARK  289  A    between atoms: _751  and  _752
REMARK  290  A    between atoms: _758  and  _759
REMARK  291  A    between atoms: _764  and  _766
REMARK  292  A    between atoms: _766  and  _767
REMARK  293  A    between atoms: _766  and  _769
REMARK  294  A    between atoms: _769  and  _770
REMARK  295  A    between atoms: _773  and  _775
REMARK  296  A    between atoms: _775  and  _776
REMARK  297  A    between atoms: _775  and  _778
REMARK  298  A    between atoms: _778  and  _779
REMARK  299  A    between atoms: _782  and  _784
REMARK  300  A    between atoms: _784  and  _785
REMARK  301  A    between atoms: _784  and  _787
REMARK  302  A    between atoms: _787  and  _788
REMARK  303  A    between atoms: _790  and  _792
REMARK  304  A    between atoms: _792  and  _793
REMARK  305  A    between atoms: _792  and  _795
REMARK  306  A    between atoms: _795  and  _796
REMARK  307  A    between atoms: _796  and  _797
REMARK  308  A    between atoms: _797  and  _798
REMARK  309  A    between atoms: _807  and  _809
REMARK  310  A    between atoms: _809  and  _810
REMARK                            x       y       z     vdW  Elec       q    Type
REMARK                         _______ _______ _______ _____ _____    ______ ____
ROOT
ATOM      1  O   HOH     1     -28.605 -25.423 -22.798  0.00  0.00    +0.000 OA
ENDROOT
TORSDOF 0
REMARK  Name = ../refined-set-2016/3rt4/3rt4_pocket.pdb
REMARK  310 active torsions:
REMARK  status: ('A' for Active; 'I' for Inactive)
REMARK    1  A    between atoms: _1  and  _3
REMARK    2  A    between atoms: _3  and  _4
REMARK    3  A    between atoms: _3  and  _6
REMARK    4  A    between atoms: _6  and  _7
REMARK    5  A    between atoms: _7  and  _8
REMARK    6  A    between atoms: _8  and  _9
REMARK    7  A    between atoms: _18  and  _20
REMARK    8  A    between atoms: _20  and  _21
REMARK    9  A    between atoms: _20  and  _23
REMARK   10  A    between atoms: _26  and  _28
REMARK   11  A    between atoms: _28  and  _29
REMARK   12  A    between atoms: _28  and  _31
REMARK   13  A    between atoms: _31  and  _32
REMARK   14  A    between atoms: _32  and  _33
REMARK   15  A    between atoms: _33  and  _34
REMARK   16  A    between atoms: _43  and  _45
REMARK   17  A    between atoms: _45  and  _46
REMARK   18  A    between atoms: _45  and  _48
REMARK   19  A    between atoms: _48  and  _49
REMARK   20  A    between atoms: _51  and  _53
REMARK   21  A    between atoms: _53  and  _54
REMARK   22  A    between atoms: _53  and  _56
REMARK   23  A    between atoms: _56  and  _57
REMARK   24  A    between atoms: _62  and  _64
REMARK   25  A    between atoms: _64  and  _65
REMARK   26  A    between atoms: _64  and  _67
REMARK   27  A    between atoms: _67  and  _68
REMARK   28  A    between atoms: _73  and  _74
REMARK   29  A    between atoms: _76  and  _78
REMARK   30  A    between atoms: _78  and  _79
REMARK   31  A    between atoms: _78  and  _81
REMARK   32  A    between atoms: _81  and  _82
REMARK   33  A    between atoms: _82  and  _83
REMARK   34  A    between atoms: _86  and  _88
REMARK   35  A    between atoms: _88  and  _89
REMARK   36  A    between atoms: _88  and  _91
REMARK   37  A    between atoms: _91  and  _92
REMARK   38  A    between atoms: _92  and  _93
REMARK   39  A    between atoms: _93  and  _94
REMARK   40  A    between atoms: _94  and  _95
REMARK   41  A    between atoms: _99  and  _101
REMARK   42  A    between atoms: _101  and  _102
REMARK   43  A    between atoms: _101  and  _104
REMARK   44  A    between atoms: _104  and  _105
REMARK   45  A    between atoms: _110  and  _111
REMARK   46  A    between atoms: _113  and  _115
REMARK   47  A    between atoms: _115  and  _116
REMARK   48  A    between atoms: _115  and  _118
REMARK   49  A    between atoms: _118  and  _119
REMARK   50  A    between atoms: _119  and  _120
REMARK   51  A    between atoms: _120  and  _121
REMARK   52  A    between atoms: _130  and  _132
REMARK   53  A    between atoms: _132  and  _133
REMARK   54  A    between atoms: _136  and  _138
REMARK   55  A    between atoms: _138  and  _139
REMARK   56  A    between atoms: _138  and  _141
REMARK   57  A    between atoms: _141  and  _142
REMARK   58  A    between atoms: _142  and  _258
REMARK   59  A    between atoms: _143  and  _145
REMARK   60  A    between atoms: _145  and  _146
REMARK   61  A    between atoms: _145  and  _148
REMARK   62  A    between atoms: _148  and  _149
REMARK   63  A    between atoms: _149  and  _150
REMARK   64  A    between atoms: _153  and  _155
REMARK   65  A    between atoms: _155  and  _156
REMARK   66  A    between atoms: _155  and  _158
REMARK   67  A    between atoms: _158  and  _159
REMARK   68  A    between atoms: _161  and  _163
REMARK   69  A    between atoms: _163  and  _164
REMARK   70  A    between atoms: _163  and  _166
REMARK   71  A    between atoms: _166  and  _167
REMARK   72  A    between atoms: _172  and  _173
REMARK   73  A    between atoms: _175  and  _177
REMARK   74  A    between atoms: _177  and  _178
REMARK   75  A    between atoms: _177  and  _180
REMARK   76  A    between atoms: _180  and  _181
REMARK   77  A    between atoms: _186  and  _188
REMARK   78  A    between atoms: _188  and  _189
REMARK   79  A    between atoms: _188  and  _191
REMARK   80  A    between atoms: _194  and  _196
REMARK   81  A    between atoms: _196  and  _197
REMARK   82  A    between atoms: _196  and  _199
REMARK   83  A    between atoms: _199  and  _200
REMARK   84  A    between atoms: _200  and  _201
REMARK   85  A    between atoms: _201  and  _202
REMARK   86  A    between atoms: _211  and  _213
REMARK   87  A    between atoms: _213  and  _214
REMARK   88  A    between atoms: _213  and  _216
REMARK   89  A    between atoms: _216  and  _217
REMARK   90  A    between atoms: _222  and  _224
REMARK   91  A    between atoms: _224  and  _225
REMARK   92  A    between atoms: _224  and  _227
REMARK   93  A    between atoms: _227  and  _228
REMARK   94  A    between atoms: _231  and  _233
REMARK   95  A    between atoms: _233  and  _234
REMARK   96  A    between atoms: _236  and  _238
REMARK   97  A    between atoms: _238  and  _239
REMARK   98  A    between atoms: _238  and  _241
REMARK   99  A    between atoms: _241  and  _242
REMARK  100  A    between atoms: _252  and  _254
REMARK  101  A    between atoms: _254  and  _255
REMARK  102  A    between atoms: _254  and  _257
REMARK  103  A    between atoms: _257  and  _258
REMARK  104  A    between atoms: _259  and  _261
REMARK  105  A    between atoms: _261  and  _262
REMARK  106  A    between atoms: _261  and  _264
REMARK  107  A    between atoms: _264  and  _265
REMARK  108  A    between atoms: _268  and  _270
REMARK  109  A    between atoms: _270  and  _271
REMARK  110  A    between atoms: _273  and  _275
REMARK  111  A    between atoms: _275  and  _276
REMARK  112  A    between atoms: _275  and  _278
REMARK  113  A    between atoms: _278  and  _279
REMARK  114  A    between atoms: _284  and  _285
REMARK  115  A    between atoms: _287  and  _289
REMARK  116  A    between atoms: _289  and  _290
REMARK  117  A    between atoms: _289  and  _292
REMARK  118  A    between atoms: _292  and  _293
REMARK  119  A    between atoms: _293  and  _294
REMARK  120  A    between atoms: _294  and  _295
REMARK  121  A    between atoms: _304  and  _306
REMARK  122  A    between atoms: _306  and  _307
REMARK  123  A    between atoms: _306  and  _309
REMARK  124  A    between atoms: _309  and  _310
REMARK  125  A    between atoms: _310  and  _311
REMARK  126  A    between atoms: _311  and  _312
REMARK  127  A    between atoms: _312  and  _313
REMARK  128  A    between atoms: _317  and  _319
REMARK  129  A    between atoms: _319  and  _320
REMARK  130  A    between atoms: _322  and  _324
REMARK  131  A    between atoms: _324  and  _325
REMARK  132  A    between atoms: _328  and  _330
REMARK  133  A    between atoms: _330  and  _331
REMARK  134  A    between atoms: _330  and  _333
REMARK  135  A    between atoms: _333  and  _334
REMARK  136  A    between atoms: _339  and  _341
REMARK  137  A    between atoms: _341  and  _342
REMARK  138  A    between atoms: _345  and  _347
REMARK  139  A    between atoms: _347  and  _348
REMARK  140  A    between atoms: _351  and  _352
REMARK  141  A    between atoms: _357  and  _359
REMARK  142  A    between atoms: _359  and  _360
REMARK  143  A    between atoms: _359  and  _362
REMARK  144  A    between atoms: _362  and  _363
REMARK  145  A    between atoms: _366  and  _368
REMARK  146  A    between atoms: _368  and  _369
REMARK  147  A    between atoms: _368  and  _371
REMARK  148  A    between atoms: _371  and  _372
REMARK  149  A    between atoms: _382  and  _384
REMARK  150  A    between atoms: _384  and  _385
REMARK  151  A    between atoms: _384  and  _387
REMARK  152  A    between atoms: _387  and  _388
REMARK  153  A    between atoms: _394  and  _395
REMARK  154  A    between atoms: _400  and  _402
REMARK  155  A    between atoms: _402  and  _403
REMARK  156  A    between atoms: _402  and  _405
REMARK  157  A    between atoms: _405  and  _406
REMARK  158  A    between atoms: _409  and  _411
REMARK  159  A    between atoms: _411  and  _412
REMARK  160  A    between atoms: _411  and  _414
REMARK  161  A    between atoms: _414  and  _415
REMARK  162  A    between atoms: _417  and  _419
REMARK  163  A    between atoms: _419  and  _420
REMARK  164  A    between atoms: _419  and  _422
REMARK  165  A    between atoms: _422  and  _423
REMARK  166  A    between atoms: _428  and  _430
REMARK  167  A    between atoms: _430  and  _431
REMARK  168  A    between atoms: _430  and  _433
REMARK  169  A    between atoms: _436  and  _438
REMARK  170  A    between atoms: _438  and  _439
REMARK  171  A    between atoms: _438  and  _441
REMARK  172  A    between atoms: _441  and  _442
REMARK  173  A    between atoms: _442  and  _443
REMARK  174  A    between atoms: _449  and  _450
REMARK  175  A    between atoms: _455  and  _457
REMARK  176  A    between atoms: _457  and  _458
REMARK  177  A    between atoms: _457  and  _460
REMARK  178  A    between atoms: _460  and  _461
REMARK  179  A    between atoms: _464  and  _466
REMARK  180  A    between atoms: _466  and  _467
REMARK  181  A    between atoms: _466  and  _469
REMARK  182  A    between atoms: _469  and  _470
REMARK  183  A    between atoms: _473  and  _475
REMARK  184  A    between atoms: _475  and  _476
REMARK  185  A    between atoms: _475  and  _478
REMARK  186  A    between atoms: _478  and  _479
REMARK  187  A    between atoms: _481  and  _483
REMARK  188  A    between atoms: _483  and  _484
REMARK  189  A    between atoms: _483  and  _486
REMARK  190  A    between atoms: _486  and  _487
REMARK  191  A    between atoms: _492  and  _493
REMARK  192  A    between atoms: _495  and  _497
REMARK  193  A    between atoms: _497  and  _498
REMARK  194  A    between atoms: _497  and  _500
REMARK  195  A    between atoms: _500  and  _501
REMARK  196  A    between atoms: _506  and  _508
REMARK  197  A    between atoms: _508  and  _509
REMARK  198  A    between atoms: _508  and  _511
REMARK  199  A    between atoms: _511  and  _512
REMARK  200  A    between atoms: _515  and  _517
REMARK  201  A    between atoms: _517  and  _518
REMARK  202  A    between atoms: _517  and  _520
REMARK  203  A    between atoms: _520  and  _521
REMARK  204  A    between atoms: _531  and  _533
REMARK  205  A    between atoms: _533  and  _534
REMARK  206  A    between atoms: _536  and  _538
REMARK  207  A    between atoms: _538  and  _539
REMARK  208  A    between atoms: _538  and  _541
REMARK  209  A    between atoms: _541  and  _542
REMARK  210  A    between atoms: _547  and  _548
REMARK  211  A    between atoms: _550  and  _552
REMARK  212  A    between atoms: _552  and  _553
REMARK  213  A    between atoms: _552  and  _555
REMARK  214  A    between atoms: _555  and  _556
REMARK  215  A    between atoms: _556  and  _557
REMARK  216  A    between atoms: _557  and  _558
REMARK  217  A    between atoms: _567  and  _569
REMARK  218  A    between atoms: _569  and  _570
REMARK  219  A    between atoms: _569  and  _572
REMARK  220  A    between atoms: _572  and  _573
REMARK  221  A    between atoms: _573  and  _574
REMARK  222  A    between atoms: _574  and  _575
REMARK  223  A    between atoms: _575  and  _576
REMARK  224  A    between atoms: _580  and  _582
REMARK  225  A    between atoms: _582  and  _583
REMARK  226  A    between atoms: _585  and  _587
REMARK  227  A    between atoms: _587  and  _588
REMARK  228  A    between atoms: _591  and  _593
REMARK  229  A    between atoms: _593  and  _594
REMARK  230  A    between atoms: _593  and  _596
REMARK  231  A    between atoms: _596  and  _597
REMARK  232  A    between atoms: _602  and  _604
REMARK  233  A    between atoms: _604  and  _605
REMARK  234  A    between atoms: _608  and  _610
REMARK  235  A    between atoms: _610  and  _611
REMARK  236  A    between atoms: _614  and  _615
REMARK  237  A    between atoms: _620  and  _622
REMARK  238  A    between atoms: _622  and  _623
REMARK  239  A    between atoms: _622  and  _625
REMARK  240  A    between atoms: _625  and  _626
REMARK  241  A    between atoms: _629  and  _631
REMARK  242  A    between atoms: _631  and  _632
REMARK  243  A    between atoms: _631  and  _634
REMARK  244  A    between atoms: _634  and  _635
REMARK  245  A    between atoms: _645  and  _647
REMARK  246  A    between atoms: _647  and  _648
REMARK  247  A    between atoms: _647  and  _650
REMARK  248  A    between atoms: _650  and  _651
REMARK  249  A    between atoms: _657  and  _658
REMARK  250  A    between atoms: _663  and  _665
REMARK  251  A    between atoms: _665  and  _666
REMARK  252  A    between atoms: _665  and  _668
REMARK  253  A    between atoms: _668  and  _669
REMARK  254  A    between atoms: _672  and  _674
REMARK  255  A    between atoms: _674  and  _675
REMARK  256  A    between atoms: _674  and  _677
REMARK  257  A    between atoms: _677  and  _678
REMARK  258  A    between atoms: _678  and  _679
REMARK  259  A    between atoms: _682  and  _684
REMARK  260  A    between atoms: _684  and  _685
REMARK  261  A    between atoms: _684  and  _687
REMARK  262  A    between atoms: _687  and  _688
REMARK  263  A    between atoms: _688  and  _689
REMARK  264  A    between atoms: _689  and  _690
REMARK  265  A    between atoms: _690  and  _691
REMARK  266  A    between atoms: _695  and  _697
REMARK  267  A    between atoms: _697  and  _698
REMARK  268  A    between atoms: _700  and  _702
REMARK  269  A    between atoms: _702  and  _703
REMARK  270  A    between atoms: _702  and  _705
REMARK  271  A    between atoms: _705  and  _706
REMARK  272  A    between atoms: _711  and  _713
REMARK  273  A    between atoms: _713  and  _714
REMARK  274  A    between atoms: _713  and  _716
REMARK  275  A    between atoms: _716  and  _717
REMARK  276  A    between atoms: _717  and  _718
REMARK  277  A    between atoms: _718  and  _719
REMARK  278  A    between atoms: _728  and  _730
REMARK  279  A    between atoms: _730  and  _731
REMARK  280  A    between atoms: _730  and  _733
REMARK  281  A    between atoms: _733  and  _734
REMARK  282  A    between atoms: _737  and  _739
REMARK  283  A    between atoms: _739  and  _740
REMARK  284  A    between atoms: _739  and  _742
REMARK  285  A    between atoms: _745  and  _747
REMARK  286  A    between atoms: _747  and  _748
REMARK  287  A    between atoms: _747  and  _750
REMARK  288  A    between atoms: _750  and  _751
REMARK  289  A    between atoms: _751  and  _752
REMARK  290  A    between atoms: _758  and  _759
REMARK  291  A    between atoms: _764  and  _766
REMARK  292  A    between atoms: _766  and  _767
REMARK  293  A    between atoms: _766  and  _769
REMARK  294  A    between atoms: _769  and  _770
REMARK  295  A    between atoms: _773  and  _775
REMARK  296  A    between atoms: _775  and  _776
REMARK  297  A    between atoms: _775  and  _778
REMARK  298  A    between atoms: _778  and  _779
REMARK  299  A    between atoms: _782  and  _784
REMARK  300  A    between atoms: _784  and  _785
REMARK  301  A    between atoms: _784  and  _787
REMARK  302  A    between atoms: _787  and  _788
REMARK  303  A    between atoms: _790  and  _792
REMARK  304  A    between atoms: _792  and  _793
REMARK  305  A    between atoms: _792  and  _795
REMARK  306  A    between atoms: _795  and  _796
REMARK  307  A    between atoms: _796  and  _797
REMARK  308  A    between atoms: _797  and  _798
REMARK  309  A    between atoms: _807  and  _809
REMARK  310  A    between atoms: _809  and  _810
REMARK                            x       y       z     vdW  Elec       q    Type
REMARK                         _______ _______ _______ _____ _____    ______ ____
ROOT
ATOM      1  O   HOH     1     -21.505 -15.885 -19.731  0.00  0.00    +0.000 OA
ENDROOT
TORSDOF 0
REMARK  Name = ../refined-set-2016/3rt4/3rt4_pocket.pdb
REMARK  310 active torsions:
REMARK  status: ('A' for Active; 'I' for Inactive)
REMARK    1  A    between atoms: _1  and  _3
REMARK    2  A    between atoms: _3  and  _4
REMARK    3  A    between atoms: _3  and  _6
REMARK    4  A    between atoms: _6  and  _7
REMARK    5  A    between atoms: _7  and  _8
REMARK    6  A    between atoms: _8  and  _9
REMARK    7  A    between atoms: _18  and  _20
REMARK    8  A    between atoms: _20  and  _21
REMARK    9  A    between atoms: _20  and  _23
REMARK   10  A    between atoms: _26  and  _28
REMARK   11  A    between atoms: _28  and  _29
REMARK   12  A    between atoms: _28  and  _31
REMARK   13  A    between atoms: _31  and  _32
REMARK   14  A    between atoms: _32  and  _33
REMARK   15  A    between atoms: _33  and  _34
REMARK   16  A    between atoms: _43  and  _45
REMARK   17  A    between atoms: _45  and  _46
REMARK   18  A    between atoms: _45  and  _48
REMARK   19  A    between atoms: _48  and  _49
REMARK   20  A    between atoms: _51  and  _53
REMARK   21  A    between atoms: _53  and  _54
REMARK   22  A    between atoms: _53  and  _56
REMARK   23  A    between atoms: _56  and  _57
REMARK   24  A    between atoms: _62  and  _64
REMARK   25  A    between atoms: _64  and  _65
REMARK   26  A    between atoms: _64  and  _67
REMARK   27  A    between atoms: _67  and  _68
REMARK   28  A    between atoms: _73  and  _74
REMARK   29  A    between atoms: _76  and  _78
REMARK   30  A    between atoms: _78  and  _79
REMARK   31  A    between atoms: _78  and  _81
REMARK   32  A    between atoms: _81  and  _82
REMARK   33  A    between atoms: _82  and  _83
REMARK   34  A    between atoms: _86  and  _88
REMARK   35  A    between atoms: _88  and  _89
REMARK   36  A    between atoms: _88  and  _91
REMARK   37  A    between atoms: _91  and  _92
REMARK   38  A    between atoms: _92  and  _93
REMARK   39  A    between atoms: _93  and  _94
REMARK   40  A    between atoms: _94  and  _95
REMARK   41  A    between atoms: _99  and  _101
REMARK   42  A    between atoms: _101  and  _102
REMARK   43  A    between atoms: _101  and  _104
REMARK   44  A    between atoms: _104  and  _105
REMARK   45  A    between atoms: _110  and  _111
REMARK   46  A    between atoms: _113  and  _115
REMARK   47  A    between atoms: _115  and  _116
REMARK   48  A    between atoms: _115  and  _118
REMARK   49  A    between atoms: _118  and  _119
REMARK   50  A    between atoms: _119  and  _120
REMARK   51  A    between atoms: _120  and  _121
REMARK   52  A    between atoms: _130  and  _132
REMARK   53  A    between atoms: _132  and  _133
REMARK   54  A    between atoms: _136  and  _138
REMARK   55  A    between atoms: _138  and  _139
REMARK   56  A    between atoms: _138  and  _141
REMARK   57  A    between atoms: _141  and  _142
REMARK   58  A    between atoms: _142  and  _258
REMARK   59  A    between atoms: _143  and  _145
REMARK   60  A    between atoms: _145  and  _146
REMARK   61  A    between atoms: _145  and  _148
REMARK   62  A    between atoms: _148  and  _149
REMARK   63  A    between atoms: _149  and  _150
REMARK   64  A    between atoms: _153  and  _155
REMARK   65  A    between atoms: _155  and  _156
REMARK   66  A    between atoms: _155  and  _158
REMARK   67  A    between atoms: _158  and  _159
REMARK   68  A    between atoms: _161  and  _163
REMARK   69  A    between atoms: _163  and  _164
REMARK   70  A    between atoms: _163  and  _166
REMARK   71  A    between atoms: _166  and  _167
REMARK   72  A    between atoms: _172  and  _173
REMARK   73  A    between atoms: _175  and  _177
REMARK   74  A    between atoms: _177  and  _178
REMARK   75  A    between atoms: _177  and  _180
REMARK   76  A    between atoms: _180  and  _181
REMARK   77  A    between atoms: _186  and  _188
REMARK   78  A    between atoms: _188  and  _189
REMARK   79  A    between atoms: _188  and  _191
REMARK   80  A    between atoms: _194  and  _196
REMARK   81  A    between atoms: _196  and  _197
REMARK   82  A    between atoms: _196  and  _199
REMARK   83  A    between atoms: _199  and  _200
REMARK   84  A    between atoms: _200  and  _201
REMARK   85  A    between atoms: _201  and  _202
REMARK   86  A    between atoms: _211  and  _213
REMARK   87  A    between atoms: _213  and  _214
REMARK   88  A    between atoms: _213  and  _216
REMARK   89  A    between atoms: _216  and  _217
REMARK   90  A    between atoms: _222  and  _224
REMARK   91  A    between atoms: _224  and  _225
REMARK   92  A    between atoms: _224  and  _227
REMARK   93  A    between atoms: _227  and  _228
REMARK   94  A    between atoms: _231  and  _233
REMARK   95  A    between atoms: _233  and  _234
REMARK   96  A    between atoms: _236  and  _238
REMARK   97  A    between atoms: _238  and  _239
REMARK   98  A    between atoms: _238  and  _241
REMARK   99  A    between atoms: _241  and  _242
REMARK  100  A    between atoms: _252  and  _254
REMARK  101  A    between atoms: _254  and  _255
REMARK  102  A    between atoms: _254  and  _257
REMARK  103  A    between atoms: _257  and  _258
REMARK  104  A    between atoms: _259  and  _261
REMARK  105  A    between atoms: _261  and  _262
REMARK  106  A    between atoms: _261  and  _264
REMARK  107  A    between atoms: _264  and  _265
REMARK  108  A    between atoms: _268  and  _270
REMARK  109  A    between atoms: _270  and  _271
REMARK  110  A    between atoms: _273  and  _275
REMARK  111  A    between atoms: _275  and  _276
REMARK  112  A    between atoms: _275  and  _278
REMARK  113  A    between atoms: _278  and  _279
REMARK  114  A    between atoms: _284  and  _285
REMARK  115  A    between atoms: _287  and  _289
REMARK  116  A    between atoms: _289  and  _290
REMARK  117  A    between atoms: _289  and  _292
REMARK  118  A    between atoms: _292  and  _293
REMARK  119  A    between atoms: _293  and  _294
REMARK  120  A    between atoms: _294  and  _295
REMARK  121  A    between atoms: _304  and  _306
REMARK  122  A    between atoms: _306  and  _307
REMARK  123  A    between atoms: _306  and  _309
REMARK  124  A    between atoms: _309  and  _310
REMARK  125  A    between atoms: _310  and  _311
REMARK  126  A    between atoms: _311  and  _312
REMARK  127  A    between atoms: _312  and  _313
REMARK  128  A    between atoms: _317  and  _319
REMARK  129  A    between atoms: _319  and  _320
REMARK  130  A    between atoms: _322  and  _324
REMARK  131  A    between atoms: _324  and  _325
REMARK  132  A    between atoms: _328  and  _330
REMARK  133  A    between atoms: _330  and  _331
REMARK  134  A    between atoms: _330  and  _333
REMARK  135  A    between atoms: _333  and  _334
REMARK  136  A    between atoms: _339  and  _341
REMARK  137  A    between atoms: _341  and  _342
REMARK  138  A    between atoms: _345  and  _347
REMARK  139  A    between atoms: _347  and  _348
REMARK  140  A    between atoms: _351  and  _352
REMARK  141  A    between atoms: _357  and  _359
REMARK  142  A    between atoms: _359  and  _360
REMARK  143  A    between atoms: _359  and  _362
REMARK  144  A    between atoms: _362  and  _363
REMARK  145  A    between atoms: _366  and  _368
REMARK  146  A    between atoms: _368  and  _369
REMARK  147  A    between atoms: _368  and  _371
REMARK  148  A    between atoms: _371  and  _372
REMARK  149  A    between atoms: _382  and  _384
REMARK  150  A    between atoms: _384  and  _385
REMARK  151  A    between atoms: _384  and  _387
REMARK  152  A    between atoms: _387  and  _388
REMARK  153  A    between atoms: _394  and  _395
REMARK  154  A    between atoms: _400  and  _402
REMARK  155  A    between atoms: _402  and  _403
REMARK  156  A    between atoms: _402  and  _405
REMARK  157  A    between atoms: _405  and  _406
REMARK  158  A    between atoms: _409  and  _411
REMARK  159  A    between atoms: _411  and  _412
REMARK  160  A    between atoms: _411  and  _414
REMARK  161  A    between atoms: _414  and  _415
REMARK  162  A    between atoms: _417  and  _419
REMARK  163  A    between atoms: _419  and  _420
REMARK  164  A    between atoms: _419  and  _422
REMARK  165  A    between atoms: _422  and  _423
REMARK  166  A    between atoms: _428  and  _430
REMARK  167  A    between atoms: _430  and  _431
REMARK  168  A    between atoms: _430  and  _433
REMARK  169  A    between atoms: _436  and  _438
REMARK  170  A    between atoms: _438  and  _439
REMARK  171  A    between atoms: _438  and  _441
REMARK  172  A    between atoms: _441  and  _442
REMARK  173  A    between atoms: _442  and  _443
REMARK  174  A    between atoms: _449  and  _450
REMARK  175  A    between atoms: _455  and  _457
REMARK  176  A    between atoms: _457  and  _458
REMARK  177  A    between atoms: _457  and  _460
REMARK  178  A    between atoms: _460  and  _461
REMARK  179  A    between atoms: _464  and  _466
REMARK  180  A    between atoms: _466  and  _467
REMARK  181  A    between atoms: _466  and  _469
REMARK  182  A    between atoms: _469  and  _470
REMARK  183  A    between atoms: _473  and  _475
REMARK  184  A    between atoms: _475  and  _476
REMARK  185  A    between atoms: _475  and  _478
REMARK  186  A    between atoms: _478  and  _479
REMARK  187  A    between atoms: _481  and  _483
REMARK  188  A    between atoms: _483  and  _484
REMARK  189  A    between atoms: _483  and  _486
REMARK  190  A    between atoms: _486  and  _487
REMARK  191  A    between atoms: _492  and  _493
REMARK  192  A    between atoms: _495  and  _497
REMARK  193  A    between atoms: _497  and  _498
REMARK  194  A    between atoms: _497  and  _500
REMARK  195  A    between atoms: _500  and  _501
REMARK  196  A    between atoms: _506  and  _508
REMARK  197  A    between atoms: _508  and  _509
REMARK  198  A    between atoms: _508  and  _511
REMARK  199  A    between atoms: _511  and  _512
REMARK  200  A    between atoms: _515  and  _517
REMARK  201  A    between atoms: _517  and  _518
REMARK  202  A    between atoms: _517  and  _520
REMARK  203  A    between atoms: _520  and  _521
REMARK  204  A    between atoms: _531  and  _533
REMARK  205  A    between atoms: _533  and  _534
REMARK  206  A    between atoms: _536  and  _538
REMARK  207  A    between atoms: _538  and  _539
REMARK  208  A    between atoms: _538  and  _541
REMARK  209  A    between atoms: _541  and  _542
REMARK  210  A    between atoms: _547  and  _548
REMARK  211  A    between atoms: _550  and  _552
REMARK  212  A    between atoms: _552  and  _553
REMARK  213  A    between atoms: _552  and  _555
REMARK  214  A    between atoms: _555  and  _556
REMARK  215  A    between atoms: _556  and  _557
REMARK  216  A    between atoms: _557  and  _558
REMARK  217  A    between atoms: _567  and  _569
REMARK  218  A    between atoms: _569  and  _570
REMARK  219  A    between atoms: _569  and  _572
REMARK  220  A    between atoms: _572  and  _573
REMARK  221  A    between atoms: _573  and  _574
REMARK  222  A    between atoms: _574  and  _575
REMARK  223  A    between atoms: _575  and  _576
REMARK  224  A    between atoms: _580  and  _582
REMARK  225  A    between atoms: _582  and  _583
REMARK  226  A    between atoms: _585  and  _587
REMARK  227  A    between atoms: _587  and  _588
REMARK  228  A    between atoms: _591  and  _593
REMARK  229  A    between atoms: _593  and  _594
REMARK  230  A    between atoms: _593  and  _596
REMARK  231  A    between atoms: _596  and  _597
REMARK  232  A    between atoms: _602  and  _604
REMARK  233  A    between atoms: _604  and  _605
REMARK  234  A    between atoms: _608  and  _610
REMARK  235  A    between atoms: _610  and  _611
REMARK  236  A    between atoms: _614  and  _615
REMARK  237  A    between atoms: _620  and  _622
REMARK  238  A    between atoms: _622  and  _623
REMARK  239  A    between atoms: _622  and  _625
REMARK  240  A    between atoms: _625  and  _626
REMARK  241  A    between atoms: _629  and  _631
REMARK  242  A    between atoms: _631  and  _632
REMARK  243  A    between atoms: _631  and  _634
REMARK  244  A    between atoms: _634  and  _635
REMARK  245  A    between atoms: _645  and  _647
REMARK  246  A    between atoms: _647  and  _648
REMARK  247  A    between atoms: _647  and  _650
REMARK  248  A    between atoms: _650  and  _651
REMARK  249  A    between atoms: _657  and  _658
REMARK  250  A    between atoms: _663  and  _665
REMARK  251  A    between atoms: _665  and  _666
REMARK  252  A    between atoms: _665  and  _668
REMARK  253  A    between atoms: _668  and  _669
REMARK  254  A    between atoms: _672  and  _674
REMARK  255  A    between atoms: _674  and  _675
REMARK  256  A    between atoms: _674  and  _677
REMARK  257  A    between atoms: _677  and  _678
REMARK  258  A    between atoms: _678  and  _679
REMARK  259  A    between atoms: _682  and  _684
REMARK  260  A    between atoms: _684  and  _685
REMARK  261  A    between atoms: _684  and  _687
REMARK  262  A    between atoms: _687  and  _688
REMARK  263  A    between atoms: _688  and  _689
REMARK  264  A    between atoms: _689  and  _690
REMARK  265  A    between atoms: _690  and  _691
REMARK  266  A    between atoms: _695  and  _697
REMARK  267  A    between atoms: _697  and  _698
REMARK  268  A    between atoms: _700  and  _702
REMARK  269  A    between atoms: _702  and  _703
REMARK  270  A    between atoms: _702  and  _705
REMARK  271  A    between atoms: _705  and  _706
REMARK  272  A    between atoms: _711  and  _713
REMARK  273  A    between atoms: _713  and  _714
REMARK  274  A    between atoms: _713  and  _716
REMARK  275  A    between atoms: _716  and  _717
REMARK  276  A    between atoms: _717  and  _718
REMARK  277  A    between atoms: _718  and  _719
REMARK  278  A    between atoms: _728  and  _730
REMARK  279  A    between atoms: _730  and  _731
REMARK  280  A    between atoms: _730  and  _733
REMARK  281  A    between atoms: _733  and  _734
REMARK  282  A    between atoms: _737  and  _739
REMARK  283  A    between atoms: _739  and  _740
REMARK  284  A    between atoms: _739  and  _742
REMARK  285  A    between atoms: _745  and  _747
REMARK  286  A    between atoms: _747  and  _748
REMARK  287  A    between atoms: _747  and  _750
REMARK  288  A    between atoms: _750  and  _751
REMARK  289  A    between atoms: _751  and  _752
REMARK  290  A    between atoms: _758  and  _759
REMARK  291  A    between atoms: _764  and  _766
REMARK  292  A    between atoms: _766  and  _767
REMARK  293  A    between atoms: _766  and  _769
REMARK  294  A    between atoms: _769  and  _770
REMARK  295  A    between atoms: _773  and  _775
REMARK  296  A    between atoms: _775  and  _776
REMARK  297  A    between atoms: _775  and  _778
REMARK  298  A    between atoms: _778  and  _779
REMARK  299  A    between atoms: _782  and  _784
REMARK  300  A    between atoms: _784  and  _785
REMARK  301  A    between atoms: _784  and  _787
REMARK  302  A    between atoms: _787  and  _788
REMARK  303  A    between atoms: _790  and  _792
REMARK  304  A    between atoms: _792  and  _793
REMARK  305  A    between atoms: _792  and  _795
REMARK  306  A    between atoms: _795  and  _796
REMARK  307  A    between atoms: _796  and  _797
REMARK  308  A    between atoms: _797  and  _798
REMARK  309  A    between atoms: _807  and  _809
REMARK  310  A    between atoms: _809  and  _810
REMARK                            x       y       z     vdW  Elec       q    Type
REMARK                         _______ _______ _______ _____ _____    ______ ____
ROOT
ATOM      1  O   HOH     1     -21.237 -19.065 -17.006  0.00  0.00    +0.000 OA
ENDROOT
TORSDOF 0
REMARK  Name = ../refined-set-2016/3rt4/3rt4_pocket.pdb
REMARK  310 active torsions:
REMARK  status: ('A' for Active; 'I' for Inactive)
REMARK    1  A    between atoms: _1  and  _3
REMARK    2  A    between atoms: _3  and  _4
REMARK    3  A    between atoms: _3  and  _6
REMARK    4  A    between atoms: _6  and  _7
REMARK    5  A    between atoms: _7  and  _8
REMARK    6  A    between atoms: _8  and  _9
REMARK    7  A    between atoms: _18  and  _20
REMARK    8  A    between atoms: _20  and  _21
REMARK    9  A    between atoms: _20  and  _23
REMARK   10  A    between atoms: _26  and  _28
REMARK   11  A    between atoms: _28  and  _29
REMARK   12  A    between atoms: _28  and  _31
REMARK   13  A    between atoms: _31  and  _32
REMARK   14  A    between atoms: _32  and  _33
REMARK   15  A    between atoms: _33  and  _34
REMARK   16  A    between atoms: _43  and  _45
REMARK   17  A    between atoms: _45  and  _46
REMARK   18  A    between atoms: _45  and  _48
REMARK   19  A    between atoms: _48  and  _49
REMARK   20  A    between atoms: _51  and  _53
REMARK   21  A    between atoms: _53  and  _54
REMARK   22  A    between atoms: _53  and  _56
REMARK   23  A    between atoms: _56  and  _57
REMARK   24  A    between atoms: _62  and  _64
REMARK   25  A    between atoms: _64  and  _65
REMARK   26  A    between atoms: _64  and  _67
REMARK   27  A    between atoms: _67  and  _68
REMARK   28  A    between atoms: _73  and  _74
REMARK   29  A    between atoms: _76  and  _78
REMARK   30  A    between atoms: _78  and  _79
REMARK   31  A    between atoms: _78  and  _81
REMARK   32  A    between atoms: _81  and  _82
REMARK   33  A    between atoms: _82  and  _83
REMARK   34  A    between atoms: _86  and  _88
REMARK   35  A    between atoms: _88  and  _89
REMARK   36  A    between atoms: _88  and  _91
REMARK   37  A    between atoms: _91  and  _92
REMARK   38  A    between atoms: _92  and  _93
REMARK   39  A    between atoms: _93  and  _94
REMARK   40  A    between atoms: _94  and  _95
REMARK   41  A    between atoms: _99  and  _101
REMARK   42  A    between atoms: _101  and  _102
REMARK   43  A    between atoms: _101  and  _104
REMARK   44  A    between atoms: _104  and  _105
REMARK   45  A    between atoms: _110  and  _111
REMARK   46  A    between atoms: _113  and  _115
REMARK   47  A    between atoms: _115  and  _116
REMARK   48  A    between atoms: _115  and  _118
REMARK   49  A    between atoms: _118  and  _119
REMARK   50  A    between atoms: _119  and  _120
REMARK   51  A    between atoms: _120  and  _121
REMARK   52  A    between atoms: _130  and  _132
REMARK   53  A    between atoms: _132  and  _133
REMARK   54  A    between atoms: _136  and  _138
REMARK   55  A    between atoms: _138  and  _139
REMARK   56  A    between atoms: _138  and  _141
REMARK   57  A    between atoms: _141  and  _142
REMARK   58  A    between atoms: _142  and  _258
REMARK   59  A    between atoms: _143  and  _145
REMARK   60  A    between atoms: _145  and  _146
REMARK   61  A    between atoms: _145  and  _148
REMARK   62  A    between atoms: _148  and  _149
REMARK   63  A    between atoms: _149  and  _150
REMARK   64  A    between atoms: _153  and  _155
REMARK   65  A    between atoms: _155  and  _156
REMARK   66  A    between atoms: _155  and  _158
REMARK   67  A    between atoms: _158  and  _159
REMARK   68  A    between atoms: _161  and  _163
REMARK   69  A    between atoms: _163  and  _164
REMARK   70  A    between atoms: _163  and  _166
REMARK   71  A    between atoms: _166  and  _167
REMARK   72  A    between atoms: _172  and  _173
REMARK   73  A    between atoms: _175  and  _177
REMARK   74  A    between atoms: _177  and  _178
REMARK   75  A    between atoms: _177  and  _180
REMARK   76  A    between atoms: _180  and  _181
REMARK   77  A    between atoms: _186  and  _188
REMARK   78  A    between atoms: _188  and  _189
REMARK   79  A    between atoms: _188  and  _191
REMARK   80  A    between atoms: _194  and  _196
REMARK   81  A    between atoms: _196  and  _197
REMARK   82  A    between atoms: _196  and  _199
REMARK   83  A    between atoms: _199  and  _200
REMARK   84  A    between atoms: _200  and  _201
REMARK   85  A    between atoms: _201  and  _202
REMARK   86  A    between atoms: _211  and  _213
REMARK   87  A    between atoms: _213  and  _214
REMARK   88  A    between atoms: _213  and  _216
REMARK   89  A    between atoms: _216  and  _217
REMARK   90  A    between atoms: _222  and  _224
REMARK   91  A    between atoms: _224  and  _225
REMARK   92  A    between atoms: _224  and  _227
REMARK   93  A    between atoms: _227  and  _228
REMARK   94  A    between atoms: _231  and  _233
REMARK   95  A    between atoms: _233  and  _234
REMARK   96  A    between atoms: _236  and  _238
REMARK   97  A    between atoms: _238  and  _239
REMARK   98  A    between atoms: _238  and  _241
REMARK   99  A    between atoms: _241  and  _242
REMARK  100  A    between atoms: _252  and  _254
REMARK  101  A    between atoms: _254  and  _255
REMARK  102  A    between atoms: _254  and  _257
REMARK  103  A    between atoms: _257  and  _258
REMARK  104  A    between atoms: _259  and  _261
REMARK  105  A    between atoms: _261  and  _262
REMARK  106  A    between atoms: _261  and  _264
REMARK  107  A    between atoms: _264  and  _265
REMARK  108  A    between atoms: _268  and  _270
REMARK  109  A    between atoms: _270  and  _271
REMARK  110  A    between atoms: _273  and  _275
REMARK  111  A    between atoms: _275  and  _276
REMARK  112  A    between atoms: _275  and  _278
REMARK  113  A    between atoms: _278  and  _279
REMARK  114  A    between atoms: _284  and  _285
REMARK  115  A    between atoms: _287  and  _289
REMARK  116  A    between atoms: _289  and  _290
REMARK  117  A    between atoms: _289  and  _292
REMARK  118  A    between atoms: _292  and  _293
REMARK  119  A    between atoms: _293  and  _294
REMARK  120  A    between atoms: _294  and  _295
REMARK  121  A    between atoms: _304  and  _306
REMARK  122  A    between atoms: _306  and  _307
REMARK  123  A    between atoms: _306  and  _309
REMARK  124  A    between atoms: _309  and  _310
REMARK  125  A    between atoms: _310  and  _311
REMARK  126  A    between atoms: _311  and  _312
REMARK  127  A    between atoms: _312  and  _313
REMARK  128  A    between atoms: _317  and  _319
REMARK  129  A    between atoms: _319  and  _320
REMARK  130  A    between atoms: _322  and  _324
REMARK  131  A    between atoms: _324  and  _325
REMARK  132  A    between atoms: _328  and  _330
REMARK  133  A    between atoms: _330  and  _331
REMARK  134  A    between atoms: _330  and  _333
REMARK  135  A    between atoms: _333  and  _334
REMARK  136  A    between atoms: _339  and  _341
REMARK  137  A    between atoms: _341  and  _342
REMARK  138  A    between atoms: _345  and  _347
REMARK  139  A    between atoms: _347  and  _348
REMARK  140  A    between atoms: _351  and  _352
REMARK  141  A    between atoms: _357  and  _359
REMARK  142  A    between atoms: _359  and  _360
REMARK  143  A    between atoms: _359  and  _362
REMARK  144  A    between atoms: _362  and  _363
REMARK  145  A    between atoms: _366  and  _368
REMARK  146  A    between atoms: _368  and  _369
REMARK  147  A    between atoms: _368  and  _371
REMARK  148  A    between atoms: _371  and  _372
REMARK  149  A    between atoms: _382  and  _384
REMARK  150  A    between atoms: _384  and  _385
REMARK  151  A    between atoms: _384  and  _387
REMARK  152  A    between atoms: _387  and  _388
REMARK  153  A    between atoms: _394  and  _395
REMARK  154  A    between atoms: _400  and  _402
REMARK  155  A    between atoms: _402  and  _403
REMARK  156  A    between atoms: _402  and  _405
REMARK  157  A    between atoms: _405  and  _406
REMARK  158  A    between atoms: _409  and  _411
REMARK  159  A    between atoms: _411  and  _412
REMARK  160  A    between atoms: _411  and  _414
REMARK  161  A    between atoms: _414  and  _415
REMARK  162  A    between atoms: _417  and  _419
REMARK  163  A    between atoms: _419  and  _420
REMARK  164  A    between atoms: _419  and  _422
REMARK  165  A    between atoms: _422  and  _423
REMARK  166  A    between atoms: _428  and  _430
REMARK  167  A    between atoms: _430  and  _431
REMARK  168  A    between atoms: _430  and  _433
REMARK  169  A    between atoms: _436  and  _438
REMARK  170  A    between atoms: _438  and  _439
REMARK  171  A    between atoms: _438  and  _441
REMARK  172  A    between atoms: _441  and  _442
REMARK  173  A    between atoms: _442  and  _443
REMARK  174  A    between atoms: _449  and  _450
REMARK  175  A    between atoms: _455  and  _457
REMARK  176  A    between atoms: _457  and  _458
REMARK  177  A    between atoms: _457  and  _460
REMARK  178  A    between atoms: _460  and  _461
REMARK  179  A    between atoms: _464  and  _466
REMARK  180  A    between atoms: _466  and  _467
REMARK  181  A    between atoms: _466  and  _469
REMARK  182  A    between atoms: _469  and  _470
REMARK  183  A    between atoms: _473  and  _475
REMARK  184  A    between atoms: _475  and  _476
REMARK  185  A    between atoms: _475  and  _478
REMARK  186  A    between atoms: _478  and  _479
REMARK  187  A    between atoms: _481  and  _483
REMARK  188  A    between atoms: _483  and  _484
REMARK  189  A    between atoms: _483  and  _486
REMARK  190  A    between atoms: _486  and  _487
REMARK  191  A    between atoms: _492  and  _493
REMARK  192  A    between atoms: _495  and  _497
REMARK  193  A    between atoms: _497  and  _498
REMARK  194  A    between atoms: _497  and  _500
REMARK  195  A    between atoms: _500  and  _501
REMARK  196  A    between atoms: _506  and  _508
REMARK  197  A    between atoms: _508  and  _509
REMARK  198  A    between atoms: _508  and  _511
REMARK  199  A    between atoms: _511  and  _512
REMARK  200  A    between atoms: _515  and  _517
REMARK  201  A    between atoms: _517  and  _518
REMARK  202  A    between atoms: _517  and  _520
REMARK  203  A    between atoms: _520  and  _521
REMARK  204  A    between atoms: _531  and  _533
REMARK  205  A    between atoms: _533  and  _534
REMARK  206  A    between atoms: _536  and  _538
REMARK  207  A    between atoms: _538  and  _539
REMARK  208  A    between atoms: _538  and  _541
REMARK  209  A    between atoms: _541  and  _542
REMARK  210  A    between atoms: _547  and  _548
REMARK  211  A    between atoms: _550  and  _552
REMARK  212  A    between atoms: _552  and  _553
REMARK  213  A    between atoms: _552  and  _555
REMARK  214  A    between atoms: _555  and  _556
REMARK  215  A    between atoms: _556  and  _557
REMARK  216  A    between atoms: _557  and  _558
REMARK  217  A    between atoms: _567  and  _569
REMARK  218  A    between atoms: _569  and  _570
REMARK  219  A    between atoms: _569  and  _572
REMARK  220  A    between atoms: _572  and  _573
REMARK  221  A    between atoms: _573  and  _574
REMARK  222  A    between atoms: _574  and  _575
REMARK  223  A    between atoms: _575  and  _576
REMARK  224  A    between atoms: _580  and  _582
REMARK  225  A    between atoms: _582  and  _583
REMARK  226  A    between atoms: _585  and  _587
REMARK  227  A    between atoms: _587  and  _588
REMARK  228  A    between atoms: _591  and  _593
REMARK  229  A    between atoms: _593  and  _594
REMARK  230  A    between atoms: _593  and  _596
REMARK  231  A    between atoms: _596  and  _597
REMARK  232  A    between atoms: _602  and  _604
REMARK  233  A    between atoms: _604  and  _605
REMARK  234  A    between atoms: _608  and  _610
REMARK  235  A    between atoms: _610  and  _611
REMARK  236  A    between atoms: _614  and  _615
REMARK  237  A    between atoms: _620  and  _622
REMARK  238  A    between atoms: _622  and  _623
REMARK  239  A    between atoms: _622  and  _625
REMARK  240  A    between atoms: _625  and  _626
REMARK  241  A    between atoms: _629  and  _631
REMARK  242  A    between atoms: _631  and  _632
REMARK  243  A    between atoms: _631  and  _634
REMARK  244  A    between atoms: _634  and  _635
REMARK  245  A    between atoms: _645  and  _647
REMARK  246  A    between atoms: _647  and  _648
REMARK  247  A    between atoms: _647  and  _650
REMARK  248  A    between atoms: _650  and  _651
REMARK  249  A    between atoms: _657  and  _658
REMARK  250  A    between atoms: _663  and  _665
REMARK  251  A    between atoms: _665  and  _666
REMARK  252  A    between atoms: _665  and  _668
REMARK  253  A    between atoms: _668  and  _669
REMARK  254  A    between atoms: _672  and  _674
REMARK  255  A    between atoms: _674  and  _675
REMARK  256  A    between atoms: _674  and  _677
REMARK  257  A    between atoms: _677  and  _678
REMARK  258  A    between atoms: _678  and  _679
REMARK  259  A    between atoms: _682  and  _684
REMARK  260  A    between atoms: _684  and  _685
REMARK  261  A    between atoms: _684  and  _687
REMARK  262  A    between atoms: _687  and  _688
REMARK  263  A    between atoms: _688  and  _689
REMARK  264  A    between atoms: _689  and  _690
REMARK  265  A    between atoms: _690  and  _691
REMARK  266  A    between atoms: _695  and  _697
REMARK  267  A    between atoms: _697  and  _698
REMARK  268  A    between atoms: _700  and  _702
REMARK  269  A    between atoms: _702  and  _703
REMARK  270  A    between atoms: _702  and  _705
REMARK  271  A    between atoms: _705  and  _706
REMARK  272  A    between atoms: _711  and  _713
REMARK  273  A    between atoms: _713  and  _714
REMARK  274  A    between atoms: _713  and  _716
REMARK  275  A    between atoms: _716  and  _717
REMARK  276  A    between atoms: _717  and  _718
REMARK  277  A    between atoms: _718  and  _719
REMARK  278  A    between atoms: _728  and  _730
REMARK  279  A    between atoms: _730  and  _731
REMARK  280  A    between atoms: _730  and  _733
REMARK  281  A    between atoms: _733  and  _734
REMARK  282  A    between atoms: _737  and  _739
REMARK  283  A    between atoms: _739  and  _740
REMARK  284  A    between atoms: _739  and  _742
REMARK  285  A    between atoms: _745  and  _747
REMARK  286  A    between atoms: _747  and  _748
REMARK  287  A    between atoms: _747  and  _750
REMARK  288  A    between atoms: _750  and  _751
REMARK  289  A    between atoms: _751  and  _752
REMARK  290  A    between atoms: _758  and  _759
REMARK  291  A    between atoms: _764  and  _766
REMARK  292  A    between atoms: _766  and  _767
REMARK  293  A    between atoms: _766  and  _769
REMARK  294  A    between atoms: _769  and  _770
REMARK  295  A    between atoms: _773  and  _775
REMARK  296  A    between atoms: _775  and  _776
REMARK  297  A    between atoms: _775  and  _778
REMARK  298  A    between atoms: _778  and  _779
REMARK  299  A    between atoms: _782  and  _784
REMARK  300  A    between atoms: _784  and  _785
REMARK  301  A    between atoms: _784  and  _787
REMARK  302  A    between atoms: _787  and  _788
REMARK  303  A    between atoms: _790  and  _792
REMARK  304  A    between atoms: _792  and  _793
REMARK  305  A    between atoms: _792  and  _795
REMARK  306  A    between atoms: _795  and  _796
REMARK  307  A    between atoms: _796  and  _797
REMARK  308  A    between atoms: _797  and  _798
REMARK  309  A    between atoms: _807  and  _809
REMARK  310  A    between atoms: _809  and  _810
REMARK                            x       y       z     vdW  Elec       q    Type
REMARK                         _______ _______ _______ _____ _____    ______ ____
ROOT
ATOM      1  O   HOH     1     -19.207 -19.739 -20.531  0.00  0.00    +0.000 OA
ENDROOT
TORSDOF 0
REMARK  Name = ../refined-set-2016/3rt4/3rt4_pocket.pdb
REMARK  310 active torsions:
REMARK  status: ('A' for Active; 'I' for Inactive)
REMARK    1  A    between atoms: _1  and  _3
REMARK    2  A    between atoms: _3  and  _4
REMARK    3  A    between atoms: _3  and  _6
REMARK    4  A    between atoms: _6  and  _7
REMARK    5  A    between atoms: _7  and  _8
REMARK    6  A    between atoms: _8  and  _9
REMARK    7  A    between atoms: _18  and  _20
REMARK    8  A    between atoms: _20  and  _21
REMARK    9  A    between atoms: _20  and  _23
REMARK   10  A    between atoms: _26  and  _28
REMARK   11  A    between atoms: _28  and  _29
REMARK   12  A    between atoms: _28  and  _31
REMARK   13  A    between atoms: _31  and  _32
REMARK   14  A    between atoms: _32  and  _33
REMARK   15  A    between atoms: _33  and  _34
REMARK   16  A    between atoms: _43  and  _45
REMARK   17  A    between atoms: _45  and  _46
REMARK   18  A    between atoms: _45  and  _48
REMARK   19  A    between atoms: _48  and  _49
REMARK   20  A    between atoms: _51  and  _53
REMARK   21  A    between atoms: _53  and  _54
REMARK   22  A    between atoms: _53  and  _56
REMARK   23  A    between atoms: _56  and  _57
REMARK   24  A    between atoms: _62  and  _64
REMARK   25  A    between atoms: _64  and  _65
REMARK   26  A    between atoms: _64  and  _67
REMARK   27  A    between atoms: _67  and  _68
REMARK   28  A    between atoms: _73  and  _74
REMARK   29  A    between atoms: _76  and  _78
REMARK   30  A    between atoms: _78  and  _79
REMARK   31  A    between atoms: _78  and  _81
REMARK   32  A    between atoms: _81  and  _82
REMARK   33  A    between atoms: _82  and  _83
REMARK   34  A    between atoms: _86  and  _88
REMARK   35  A    between atoms: _88  and  _89
REMARK   36  A    between atoms: _88  and  _91
REMARK   37  A    between atoms: _91  and  _92
REMARK   38  A    between atoms: _92  and  _93
REMARK   39  A    between atoms: _93  and  _94
REMARK   40  A    between atoms: _94  and  _95
REMARK   41  A    between atoms: _99  and  _101
REMARK   42  A    between atoms: _101  and  _102
REMARK   43  A    between atoms: _101  and  _104
REMARK   44  A    between atoms: _104  and  _105
REMARK   45  A    between atoms: _110  and  _111
REMARK   46  A    between atoms: _113  and  _115
REMARK   47  A    between atoms: _115  and  _116
REMARK   48  A    between atoms: _115  and  _118
REMARK   49  A    between atoms: _118  and  _119
REMARK   50  A    between atoms: _119  and  _120
REMARK   51  A    between atoms: _120  and  _121
REMARK   52  A    between atoms: _130  and  _132
REMARK   53  A    between atoms: _132  and  _133
REMARK   54  A    between atoms: _136  and  _138
REMARK   55  A    between atoms: _138  and  _139
REMARK   56  A    between atoms: _138  and  _141
REMARK   57  A    between atoms: _141  and  _142
REMARK   58  A    between atoms: _142  and  _258
REMARK   59  A    between atoms: _143  and  _145
REMARK   60  A    between atoms: _145  and  _146
REMARK   61  A    between atoms: _145  and  _148
REMARK   62  A    between atoms: _148  and  _149
REMARK   63  A    between atoms: _149  and  _150
REMARK   64  A    between atoms: _153  and  _155
REMARK   65  A    between atoms: _155  and  _156
REMARK   66  A    between atoms: _155  and  _158
REMARK   67  A    between atoms: _158  and  _159
REMARK   68  A    between atoms: _161  and  _163
REMARK   69  A    between atoms: _163  and  _164
REMARK   70  A    between atoms: _163  and  _166
REMARK   71  A    between atoms: _166  and  _167
REMARK   72  A    between atoms: _172  and  _173
REMARK   73  A    between atoms: _175  and  _177
REMARK   74  A    between atoms: _177  and  _178
REMARK   75  A    between atoms: _177  and  _180
REMARK   76  A    between atoms: _180  and  _181
REMARK   77  A    between atoms: _186  and  _188
REMARK   78  A    between atoms: _188  and  _189
REMARK   79  A    between atoms: _188  and  _191
REMARK   80  A    between atoms: _194  and  _196
REMARK   81  A    between atoms: _196  and  _197
REMARK   82  A    between atoms: _196  and  _199
REMARK   83  A    between atoms: _199  and  _200
REMARK   84  A    between atoms: _200  and  _201
REMARK   85  A    between atoms: _201  and  _202
REMARK   86  A    between atoms: _211  and  _213
REMARK   87  A    between atoms: _213  and  _214
REMARK   88  A    between atoms: _213  and  _216
REMARK   89  A    between atoms: _216  and  _217
REMARK   90  A    between atoms: _222  and  _224
REMARK   91  A    between atoms: _224  and  _225
REMARK   92  A    between atoms: _224  and  _227
REMARK   93  A    between atoms: _227  and  _228
REMARK   94  A    between atoms: _231  and  _233
REMARK   95  A    between atoms: _233  and  _234
REMARK   96  A    between atoms: _236  and  _238
REMARK   97  A    between atoms: _238  and  _239
REMARK   98  A    between atoms: _238  and  _241
REMARK   99  A    between atoms: _241  and  _242
REMARK  100  A    between atoms: _252  and  _254
REMARK  101  A    between atoms: _254  and  _255
REMARK  102  A    between atoms: _254  and  _257
REMARK  103  A    between atoms: _257  and  _258
REMARK  104  A    between atoms: _259  and  _261
REMARK  105  A    between atoms: _261  and  _262
REMARK  106  A    between atoms: _261  and  _264
REMARK  107  A    between atoms: _264  and  _265
REMARK  108  A    between atoms: _268  and  _270
REMARK  109  A    between atoms: _270  and  _271
REMARK  110  A    between atoms: _273  and  _275
REMARK  111  A    between atoms: _275  and  _276
REMARK  112  A    between atoms: _275  and  _278
REMARK  113  A    between atoms: _278  and  _279
REMARK  114  A    between atoms: _284  and  _285
REMARK  115  A    between atoms: _287  and  _289
REMARK  116  A    between atoms: _289  and  _290
REMARK  117  A    between atoms: _289  and  _292
REMARK  118  A    between atoms: _292  and  _293
REMARK  119  A    between atoms: _293  and  _294
REMARK  120  A    between atoms: _294  and  _295
REMARK  121  A    between atoms: _304  and  _306
REMARK  122  A    between atoms: _306  and  _307
REMARK  123  A    between atoms: _306  and  _309
REMARK  124  A    between atoms: _309  and  _310
REMARK  125  A    between atoms: _310  and  _311
REMARK  126  A    between atoms: _311  and  _312
REMARK  127  A    between atoms: _312  and  _313
REMARK  128  A    between atoms: _317  and  _319
REMARK  129  A    between atoms: _319  and  _320
REMARK  130  A    between atoms: _322  and  _324
REMARK  131  A    between atoms: _324  and  _325
REMARK  132  A    between atoms: _328  and  _330
REMARK  133  A    between atoms: _330  and  _331
REMARK  134  A    between atoms: _330  and  _333
REMARK  135  A    between atoms: _333  and  _334
REMARK  136  A    between atoms: _339  and  _341
REMARK  137  A    between atoms: _341  and  _342
REMARK  138  A    between atoms: _345  and  _347
REMARK  139  A    between atoms: _347  and  _348
REMARK  140  A    between atoms: _351  and  _352
REMARK  141  A    between atoms: _357  and  _359
REMARK  142  A    between atoms: _359  and  _360
REMARK  143  A    between atoms: _359  and  _362
REMARK  144  A    between atoms: _362  and  _363
REMARK  145  A    between atoms: _366  and  _368
REMARK  146  A    between atoms: _368  and  _369
REMARK  147  A    between atoms: _368  and  _371
REMARK  148  A    between atoms: _371  and  _372
REMARK  149  A    between atoms: _382  and  _384
REMARK  150  A    between atoms: _384  and  _385
REMARK  151  A    between atoms: _384  and  _387
REMARK  152  A    between atoms: _387  and  _388
REMARK  153  A    between atoms: _394  and  _395
REMARK  154  A    between atoms: _400  and  _402
REMARK  155  A    between atoms: _402  and  _403
REMARK  156  A    between atoms: _402  and  _405
REMARK  157  A    between atoms: _405  and  _406
REMARK  158  A    between atoms: _409  and  _411
REMARK  159  A    between atoms: _411  and  _412
REMARK  160  A    between atoms: _411  and  _414
REMARK  161  A    between atoms: _414  and  _415
REMARK  162  A    between atoms: _417  and  _419
REMARK  163  A    between atoms: _419  and  _420
REMARK  164  A    between atoms: _419  and  _422
REMARK  165  A    between atoms: _422  and  _423
REMARK  166  A    between atoms: _428  and  _430
REMARK  167  A    between atoms: _430  and  _431
REMARK  168  A    between atoms: _430  and  _433
REMARK  169  A    between atoms: _436  and  _438
REMARK  170  A    between atoms: _438  and  _439
REMARK  171  A    between atoms: _438  and  _441
REMARK  172  A    between atoms: _441  and  _442
REMARK  173  A    between atoms: _442  and  _443
REMARK  174  A    between atoms: _449  and  _450
REMARK  175  A    between atoms: _455  and  _457
REMARK  176  A    between atoms: _457  and  _458
REMARK  177  A    between atoms: _457  and  _460
REMARK  178  A    between atoms: _460  and  _461
REMARK  179  A    between atoms: _464  and  _466
REMARK  180  A    between atoms: _466  and  _467
REMARK  181  A    between atoms: _466  and  _469
REMARK  182  A    between atoms: _469  and  _470
REMARK  183  A    between atoms: _473  and  _475
REMARK  184  A    between atoms: _475  and  _476
REMARK  185  A    between atoms: _475  and  _478
REMARK  186  A    between atoms: _478  and  _479
REMARK  187  A    between atoms: _481  and  _483
REMARK  188  A    between atoms: _483  and  _484
REMARK  189  A    between atoms: _483  and  _486
REMARK  190  A    between atoms: _486  and  _487
REMARK  191  A    between atoms: _492  and  _493
REMARK  192  A    between atoms: _495  and  _497
REMARK  193  A    between atoms: _497  and  _498
REMARK  194  A    between atoms: _497  and  _500
REMARK  195  A    between atoms: _500  and  _501
REMARK  196  A    between atoms: _506  and  _508
REMARK  197  A    between atoms: _508  and  _509
REMARK  198  A    between atoms: _508  and  _511
REMARK  199  A    between atoms: _511  and  _512
REMARK  200  A    between atoms: _515  and  _517
REMARK  201  A    between atoms: _517  and  _518
REMARK  202  A    between atoms: _517  and  _520
REMARK  203  A    between atoms: _520  and  _521
REMARK  204  A    between atoms: _531  and  _533
REMARK  205  A    between atoms: _533  and  _534
REMARK  206  A    between atoms: _536  and  _538
REMARK  207  A    between atoms: _538  and  _539
REMARK  208  A    between atoms: _538  and  _541
REMARK  209  A    between atoms: _541  and  _542
REMARK  210  A    between atoms: _547  and  _548
REMARK  211  A    between atoms: _550  and  _552
REMARK  212  A    between atoms: _552  and  _553
REMARK  213  A    between atoms: _552  and  _555
REMARK  214  A    between atoms: _555  and  _556
REMARK  215  A    between atoms: _556  and  _557
REMARK  216  A    between atoms: _557  and  _558
REMARK  217  A    between atoms: _567  and  _569
REMARK  218  A    between atoms: _569  and  _570
REMARK  219  A    between atoms: _569  and  _572
REMARK  220  A    between atoms: _572  and  _573
REMARK  221  A    between atoms: _573  and  _574
REMARK  222  A    between atoms: _574  and  _575
REMARK  223  A    between atoms: _575  and  _576
REMARK  224  A    between atoms: _580  and  _582
REMARK  225  A    between atoms: _582  and  _583
REMARK  226  A    between atoms: _585  and  _587
REMARK  227  A    between atoms: _587  and  _588
REMARK  228  A    between atoms: _591  and  _593
REMARK  229  A    between atoms: _593  and  _594
REMARK  230  A    between atoms: _593  and  _596
REMARK  231  A    between atoms: _596  and  _597
REMARK  232  A    between atoms: _602  and  _604
REMARK  233  A    between atoms: _604  and  _605
REMARK  234  A    between atoms: _608  and  _610
REMARK  235  A    between atoms: _610  and  _611
REMARK  236  A    between atoms: _614  and  _615
REMARK  237  A    between atoms: _620  and  _622
REMARK  238  A    between atoms: _622  and  _623
REMARK  239  A    between atoms: _622  and  _625
REMARK  240  A    between atoms: _625  and  _626
REMARK  241  A    between atoms: _629  and  _631
REMARK  242  A    between atoms: _631  and  _632
REMARK  243  A    between atoms: _631  and  _634
REMARK  244  A    between atoms: _634  and  _635
REMARK  245  A    between atoms: _645  and  _647
REMARK  246  A    between atoms: _647  and  _648
REMARK  247  A    between atoms: _647  and  _650
REMARK  248  A    between atoms: _650  and  _651
REMARK  249  A    between atoms: _657  and  _658
REMARK  250  A    between atoms: _663  and  _665
REMARK  251  A    between atoms: _665  and  _666
REMARK  252  A    between atoms: _665  and  _668
REMARK  253  A    between atoms: _668  and  _669
REMARK  254  A    between atoms: _672  and  _674
REMARK  255  A    between atoms: _674  and  _675
REMARK  256  A    between atoms: _674  and  _677
REMARK  257  A    between atoms: _677  and  _678
REMARK  258  A    between atoms: _678  and  _679
REMARK  259  A    between atoms: _682  and  _684
REMARK  260  A    between atoms: _684  and  _685
REMARK  261  A    between atoms: _684  and  _687
REMARK  262  A    between atoms: _687  and  _688
REMARK  263  A    between atoms: _688  and  _689
REMARK  264  A    between atoms: _689  and  _690
REMARK  265  A    between atoms: _690  and  _691
REMARK  266  A    between atoms: _695  and  _697
REMARK  267  A    between atoms: _697  and  _698
REMARK  268  A    between atoms: _700  and  _702
REMARK  269  A    between atoms: _702  and  _703
REMARK  270  A    between atoms: _702  and  _705
REMARK  271  A    between atoms: _705  and  _706
REMARK  272  A    between atoms: _711  and  _713
REMARK  273  A    between atoms: _713  and  _714
REMARK  274  A    between atoms: _713  and  _716
REMARK  275  A    between atoms: _716  and  _717
REMARK  276  A    between atoms: _717  and  _718
REMARK  277  A    between atoms: _718  and  _719
REMARK  278  A    between atoms: _728  and  _730
REMARK  279  A    between atoms: _730  and  _731
REMARK  280  A    between atoms: _730  and  _733
REMARK  281  A    between atoms: _733  and  _734
REMARK  282  A    between atoms: _737  and  _739
REMARK  283  A    between atoms: _739  and  _740
REMARK  284  A    between atoms: _739  and  _742
REMARK  285  A    between atoms: _745  and  _747
REMARK  286  A    between atoms: _747  and  _748
REMARK  287  A    between atoms: _747  and  _750
REMARK  288  A    between atoms: _750  and  _751
REMARK  289  A    between atoms: _751  and  _752
REMARK  290  A    between atoms: _758  and  _759
REMARK  291  A    between atoms: _764  and  _766
REMARK  292  A    between atoms: _766  and  _767
REMARK  293  A    between atoms: _766  and  _769
REMARK  294  A    between atoms: _769  and  _770
REMARK  295  A    between atoms: _773  and  _775
REMARK  296  A    between atoms: _775  and  _776
REMARK  297  A    between atoms: _775  and  _778
REMARK  298  A    between atoms: _778  and  _779
REMARK  299  A    between atoms: _782  and  _784
REMARK  300  A    between atoms: _784  and  _785
REMARK  301  A    between atoms: _784  and  _787
REMARK  302  A    between atoms: _787  and  _788
REMARK  303  A    between atoms: _790  and  _792
REMARK  304  A    between atoms: _792  and  _793
REMARK  305  A    between atoms: _792  and  _795
REMARK  306  A    between atoms: _795  and  _796
REMARK  307  A    between atoms: _796  and  _797
REMARK  308  A    between atoms: _797  and  _798
REMARK  309  A    between atoms: _807  and  _809
REMARK  310  A    between atoms: _809  and  _810
REMARK                            x       y       z     vdW  Elec       q    Type
REMARK                         _______ _______ _______ _____ _____    ______ ____
ROOT
ATOM      1  O   HOH     1     -33.102 -23.093 -34.125  0.00  0.00    +0.000 OA
ENDROOT
TORSDOF 0
REMARK  Name = ../refined-set-2016/3rt4/3rt4_pocket.pdb
REMARK  310 active torsions:
REMARK  status: ('A' for Active; 'I' for Inactive)
REMARK    1  A    between atoms: _1  and  _3
REMARK    2  A    between atoms: _3  and  _4
REMARK    3  A    between atoms: _3  and  _6
REMARK    4  A    between atoms: _6  and  _7
REMARK    5  A    between atoms: _7  and  _8
REMARK    6  A    between atoms: _8  and  _9
REMARK    7  A    between atoms: _18  and  _20
REMARK    8  A    between atoms: _20  and  _21
REMARK    9  A    between atoms: _20  and  _23
REMARK   10  A    between atoms: _26  and  _28
REMARK   11  A    between atoms: _28  and  _29
REMARK   12  A    between atoms: _28  and  _31
REMARK   13  A    between atoms: _31  and  _32
REMARK   14  A    between atoms: _32  and  _33
REMARK   15  A    between atoms: _33  and  _34
REMARK   16  A    between atoms: _43  and  _45
REMARK   17  A    between atoms: _45  and  _46
REMARK   18  A    between atoms: _45  and  _48
REMARK   19  A    between atoms: _48  and  _49
REMARK   20  A    between atoms: _51  and  _53
REMARK   21  A    between atoms: _53  and  _54
REMARK   22  A    between atoms: _53  and  _56
REMARK   23  A    between atoms: _56  and  _57
REMARK   24  A    between atoms: _62  and  _64
REMARK   25  A    between atoms: _64  and  _65
REMARK   26  A    between atoms: _64  and  _67
REMARK   27  A    between atoms: _67  and  _68
REMARK   28  A    between atoms: _73  and  _74
REMARK   29  A    between atoms: _76  and  _78
REMARK   30  A    between atoms: _78  and  _79
REMARK   31  A    between atoms: _78  and  _81
REMARK   32  A    between atoms: _81  and  _82
REMARK   33  A    between atoms: _82  and  _83
REMARK   34  A    between atoms: _86  and  _88
REMARK   35  A    between atoms: _88  and  _89
REMARK   36  A    between atoms: _88  and  _91
REMARK   37  A    between atoms: _91  and  _92
REMARK   38  A    between atoms: _92  and  _93
REMARK   39  A    between atoms: _93  and  _94
REMARK   40  A    between atoms: _94  and  _95
REMARK   41  A    between atoms: _99  and  _101
REMARK   42  A    between atoms: _101  and  _102
REMARK   43  A    between atoms: _101  and  _104
REMARK   44  A    between atoms: _104  and  _105
REMARK   45  A    between atoms: _110  and  _111
REMARK   46  A    between atoms: _113  and  _115
REMARK   47  A    between atoms: _115  and  _116
REMARK   48  A    between atoms: _115  and  _118
REMARK   49  A    between atoms: _118  and  _119
REMARK   50  A    between atoms: _119  and  _120
REMARK   51  A    between atoms: _120  and  _121
REMARK   52  A    between atoms: _130  and  _132
REMARK   53  A    between atoms: _132  and  _133
REMARK   54  A    between atoms: _136  and  _138
REMARK   55  A    between atoms: _138  and  _139
REMARK   56  A    between atoms: _138  and  _141
REMARK   57  A    between atoms: _141  and  _142
REMARK   58  A    between atoms: _142  and  _258
REMARK   59  A    between atoms: _143  and  _145
REMARK   60  A    between atoms: _145  and  _146
REMARK   61  A    between atoms: _145  and  _148
REMARK   62  A    between atoms: _148  and  _149
REMARK   63  A    between atoms: _149  and  _150
REMARK   64  A    between atoms: _153  and  _155
REMARK   65  A    between atoms: _155  and  _156
REMARK   66  A    between atoms: _155  and  _158
REMARK   67  A    between atoms: _158  and  _159
REMARK   68  A    between atoms: _161  and  _163
REMARK   69  A    between atoms: _163  and  _164
REMARK   70  A    between atoms: _163  and  _166
REMARK   71  A    between atoms: _166  and  _167
REMARK   72  A    between atoms: _172  and  _173
REMARK   73  A    between atoms: _175  and  _177
REMARK   74  A    between atoms: _177  and  _178
REMARK   75  A    between atoms: _177  and  _180
REMARK   76  A    between atoms: _180  and  _181
REMARK   77  A    between atoms: _186  and  _188
REMARK   78  A    between atoms: _188  and  _189
REMARK   79  A    between atoms: _188  and  _191
REMARK   80  A    between atoms: _194  and  _196
REMARK   81  A    between atoms: _196  and  _197
REMARK   82  A    between atoms: _196  and  _199
REMARK   83  A    between atoms: _199  and  _200
REMARK   84  A    between atoms: _200  and  _201
REMARK   85  A    between atoms: _201  and  _202
REMARK   86  A    between atoms: _211  and  _213
REMARK   87  A    between atoms: _213  and  _214
REMARK   88  A    between atoms: _213  and  _216
REMARK   89  A    between atoms: _216  and  _217
REMARK   90  A    between atoms: _222  and  _224
REMARK   91  A    between atoms: _224  and  _225
REMARK   92  A    between atoms: _224  and  _227
REMARK   93  A    between atoms: _227  and  _228
REMARK   94  A    between atoms: _231  and  _233
REMARK   95  A    between atoms: _233  and  _234
REMARK   96  A    between atoms: _236  and  _238
REMARK   97  A    between atoms: _238  and  _239
REMARK   98  A    between atoms: _238  and  _241
REMARK   99  A    between atoms: _241  and  _242
REMARK  100  A    between atoms: _252  and  _254
REMARK  101  A    between atoms: _254  and  _255
REMARK  102  A    between atoms: _254  and  _257
REMARK  103  A    between atoms: _257  and  _258
REMARK  104  A    between atoms: _259  and  _261
REMARK  105  A    between atoms: _261  and  _262
REMARK  106  A    between atoms: _261  and  _264
REMARK  107  A    between atoms: _264  and  _265
REMARK  108  A    between atoms: _268  and  _270
REMARK  109  A    between atoms: _270  and  _271
REMARK  110  A    between atoms: _273  and  _275
REMARK  111  A    between atoms: _275  and  _276
REMARK  112  A    between atoms: _275  and  _278
REMARK  113  A    between atoms: _278  and  _279
REMARK  114  A    between atoms: _284  and  _285
REMARK  115  A    between atoms: _287  and  _289
REMARK  116  A    between atoms: _289  and  _290
REMARK  117  A    between atoms: _289  and  _292
REMARK  118  A    between atoms: _292  and  _293
REMARK  119  A    between atoms: _293  and  _294
REMARK  120  A    between atoms: _294  and  _295
REMARK  121  A    between atoms: _304  and  _306
REMARK  122  A    between atoms: _306  and  _307
REMARK  123  A    between atoms: _306  and  _309
REMARK  124  A    between atoms: _309  and  _310
REMARK  125  A    between atoms: _310  and  _311
REMARK  126  A    between atoms: _311  and  _312
REMARK  127  A    between atoms: _312  and  _313
REMARK  128  A    between atoms: _317  and  _319
REMARK  129  A    between atoms: _319  and  _320
REMARK  130  A    between atoms: _322  and  _324
REMARK  131  A    between atoms: _324  and  _325
REMARK  132  A    between atoms: _328  and  _330
REMARK  133  A    between atoms: _330  and  _331
REMARK  134  A    between atoms: _330  and  _333
REMARK  135  A    between atoms: _333  and  _334
REMARK  136  A    between atoms: _339  and  _341
REMARK  137  A    between atoms: _341  and  _342
REMARK  138  A    between atoms: _345  and  _347
REMARK  139  A    between atoms: _347  and  _348
REMARK  140  A    between atoms: _351  and  _352
REMARK  141  A    between atoms: _357  and  _359
REMARK  142  A    between atoms: _359  and  _360
REMARK  143  A    between atoms: _359  and  _362
REMARK  144  A    between atoms: _362  and  _363
REMARK  145  A    between atoms: _366  and  _368
REMARK  146  A    between atoms: _368  and  _369
REMARK  147  A    between atoms: _368  and  _371
REMARK  148  A    between atoms: _371  and  _372
REMARK  149  A    between atoms: _382  and  _384
REMARK  150  A    between atoms: _384  and  _385
REMARK  151  A    between atoms: _384  and  _387
REMARK  152  A    between atoms: _387  and  _388
REMARK  153  A    between atoms: _394  and  _395
REMARK  154  A    between atoms: _400  and  _402
REMARK  155  A    between atoms: _402  and  _403
REMARK  156  A    between atoms: _402  and  _405
REMARK  157  A    between atoms: _405  and  _406
REMARK  158  A    between atoms: _409  and  _411
REMARK  159  A    between atoms: _411  and  _412
REMARK  160  A    between atoms: _411  and  _414
REMARK  161  A    between atoms: _414  and  _415
REMARK  162  A    between atoms: _417  and  _419
REMARK  163  A    between atoms: _419  and  _420
REMARK  164  A    between atoms: _419  and  _422
REMARK  165  A    between atoms: _422  and  _423
REMARK  166  A    between atoms: _428  and  _430
REMARK  167  A    between atoms: _430  and  _431
REMARK  168  A    between atoms: _430  and  _433
REMARK  169  A    between atoms: _436  and  _438
REMARK  170  A    between atoms: _438  and  _439
REMARK  171  A    between atoms: _438  and  _441
REMARK  172  A    between atoms: _441  and  _442
REMARK  173  A    between atoms: _442  and  _443
REMARK  174  A    between atoms: _449  and  _450
REMARK  175  A    between atoms: _455  and  _457
REMARK  176  A    between atoms: _457  and  _458
REMARK  177  A    between atoms: _457  and  _460
REMARK  178  A    between atoms: _460  and  _461
REMARK  179  A    between atoms: _464  and  _466
REMARK  180  A    between atoms: _466  and  _467
REMARK  181  A    between atoms: _466  and  _469
REMARK  182  A    between atoms: _469  and  _470
REMARK  183  A    between atoms: _473  and  _475
REMARK  184  A    between atoms: _475  and  _476
REMARK  185  A    between atoms: _475  and  _478
REMARK  186  A    between atoms: _478  and  _479
REMARK  187  A    between atoms: _481  and  _483
REMARK  188  A    between atoms: _483  and  _484
REMARK  189  A    between atoms: _483  and  _486
REMARK  190  A    between atoms: _486  and  _487
REMARK  191  A    between atoms: _492  and  _493
REMARK  192  A    between atoms: _495  and  _497
REMARK  193  A    between atoms: _497  and  _498
REMARK  194  A    between atoms: _497  and  _500
REMARK  195  A    between atoms: _500  and  _501
REMARK  196  A    between atoms: _506  and  _508
REMARK  197  A    between atoms: _508  and  _509
REMARK  198  A    between atoms: _508  and  _511
REMARK  199  A    between atoms: _511  and  _512
REMARK  200  A    between atoms: _515  and  _517
REMARK  201  A    between atoms: _517  and  _518
REMARK  202  A    between atoms: _517  and  _520
REMARK  203  A    between atoms: _520  and  _521
REMARK  204  A    between atoms: _531  and  _533
REMARK  205  A    between atoms: _533  and  _534
REMARK  206  A    between atoms: _536  and  _538
REMARK  207  A    between atoms: _538  and  _539
REMARK  208  A    between atoms: _538  and  _541
REMARK  209  A    between atoms: _541  and  _542
REMARK  210  A    between atoms: _547  and  _548
REMARK  211  A    between atoms: _550  and  _552
REMARK  212  A    between atoms: _552  and  _553
REMARK  213  A    between atoms: _552  and  _555
REMARK  214  A    between atoms: _555  and  _556
REMARK  215  A    between atoms: _556  and  _557
REMARK  216  A    between atoms: _557  and  _558
REMARK  217  A    between atoms: _567  and  _569
REMARK  218  A    between atoms: _569  and  _570
REMARK  219  A    between atoms: _569  and  _572
REMARK  220  A    between atoms: _572  and  _573
REMARK  221  A    between atoms: _573  and  _574
REMARK  222  A    between atoms: _574  and  _575
REMARK  223  A    between atoms: _575  and  _576
REMARK  224  A    between atoms: _580  and  _582
REMARK  225  A    between atoms: _582  and  _583
REMARK  226  A    between atoms: _585  and  _587
REMARK  227  A    between atoms: _587  and  _588
REMARK  228  A    between atoms: _591  and  _593
REMARK  229  A    between atoms: _593  and  _594
REMARK  230  A    between atoms: _593  and  _596
REMARK  231  A    between atoms: _596  and  _597
REMARK  232  A    between atoms: _602  and  _604
REMARK  233  A    between atoms: _604  and  _605
REMARK  234  A    between atoms: _608  and  _610
REMARK  235  A    between atoms: _610  and  _611
REMARK  236  A    between atoms: _614  and  _615
REMARK  237  A    between atoms: _620  and  _622
REMARK  238  A    between atoms: _622  and  _623
REMARK  239  A    between atoms: _622  and  _625
REMARK  240  A    between atoms: _625  and  _626
REMARK  241  A    between atoms: _629  and  _631
REMARK  242  A    between atoms: _631  and  _632
REMARK  243  A    between atoms: _631  and  _634
REMARK  244  A    between atoms: _634  and  _635
REMARK  245  A    between atoms: _645  and  _647
REMARK  246  A    between atoms: _647  and  _648
REMARK  247  A    between atoms: _647  and  _650
REMARK  248  A    between atoms: _650  and  _651
REMARK  249  A    between atoms: _657  and  _658
REMARK  250  A    between atoms: _663  and  _665
REMARK  251  A    between atoms: _665  and  _666
REMARK  252  A    between atoms: _665  and  _668
REMARK  253  A    between atoms: _668  and  _669
REMARK  254  A    between atoms: _672  and  _674
REMARK  255  A    between atoms: _674  and  _675
REMARK  256  A    between atoms: _674  and  _677
REMARK  257  A    between atoms: _677  and  _678
REMARK  258  A    between atoms: _678  and  _679
REMARK  259  A    between atoms: _682  and  _684
REMARK  260  A    between atoms: _684  and  _685
REMARK  261  A    between atoms: _684  and  _687
REMARK  262  A    between atoms: _687  and  _688
REMARK  263  A    between atoms: _688  and  _689
REMARK  264  A    between atoms: _689  and  _690
REMARK  265  A    between atoms: _690  and  _691
REMARK  266  A    between atoms: _695  and  _697
REMARK  267  A    between atoms: _697  and  _698
REMARK  268  A    between atoms: _700  and  _702
REMARK  269  A    between atoms: _702  and  _703
REMARK  270  A    between atoms: _702  and  _705
REMARK  271  A    between atoms: _705  and  _706
REMARK  272  A    between atoms: _711  and  _713
REMARK  273  A    between atoms: _713  and  _714
REMARK  274  A    between atoms: _713  and  _716
REMARK  275  A    between atoms: _716  and  _717
REMARK  276  A    between atoms: _717  and  _718
REMARK  277  A    between atoms: _718  and  _719
REMARK  278  A    between atoms: _728  and  _730
REMARK  279  A    between atoms: _730  and  _731
REMARK  280  A    between atoms: _730  and  _733
REMARK  281  A    between atoms: _733  and  _734
REMARK  282  A    between atoms: _737  and  _739
REMARK  283  A    between atoms: _739  and  _740
REMARK  284  A    between atoms: _739  and  _742
REMARK  285  A    between atoms: _745  and  _747
REMARK  286  A    between atoms: _747  and  _748
REMARK  287  A    between atoms: _747  and  _750
REMARK  288  A    between atoms: _750  and  _751
REMARK  289  A    between atoms: _751  and  _752
REMARK  290  A    between atoms: _758  and  _759
REMARK  291  A    between atoms: _764  and  _766
REMARK  292  A    between atoms: _766  and  _767
REMARK  293  A    between atoms: _766  and  _769
REMARK  294  A    between atoms: _769  and  _770
REMARK  295  A    between atoms: _773  and  _775
REMARK  296  A    between atoms: _775  and  _776
REMARK  297  A    between atoms: _775  and  _778
REMARK  298  A    between atoms: _778  and  _779
REMARK  299  A    between atoms: _782  and  _784
REMARK  300  A    between atoms: _784  and  _785
REMARK  301  A    between atoms: _784  and  _787
REMARK  302  A    between atoms: _787  and  _788
REMARK  303  A    between atoms: _790  and  _792
REMARK  304  A    between atoms: _792  and  _793
REMARK  305  A    between atoms: _792  and  _795
REMARK  306  A    between atoms: _795  and  _796
REMARK  307  A    between atoms: _796  and  _797
REMARK  308  A    between atoms: _797  and  _798
REMARK  309  A    between atoms: _807  and  _809
REMARK  310  A    between atoms: _809  and  _810
REMARK                            x       y       z     vdW  Elec       q    Type
REMARK                         _______ _______ _______ _____ _____    ______ ____
ROOT
ATOM      1  O   HOH     1     -33.505 -19.332 -18.522  0.00  0.00    +0.000 OA
ENDROOT
TORSDOF 0
REMARK  Name = ../refined-set-2016/3rt4/3rt4_pocket.pdb
REMARK  310 active torsions:
REMARK  status: ('A' for Active; 'I' for Inactive)
REMARK    1  A    between atoms: _1  and  _3
REMARK    2  A    between atoms: _3  and  _4
REMARK    3  A    between atoms: _3  and  _6
REMARK    4  A    between atoms: _6  and  _7
REMARK    5  A    between atoms: _7  and  _8
REMARK    6  A    between atoms: _8  and  _9
REMARK    7  A    between atoms: _18  and  _20
REMARK    8  A    between atoms: _20  and  _21
REMARK    9  A    between atoms: _20  and  _23
REMARK   10  A    between atoms: _26  and  _28
REMARK   11  A    between atoms: _28  and  _29
REMARK   12  A    between atoms: _28  and  _31
REMARK   13  A    between atoms: _31  and  _32
REMARK   14  A    between atoms: _32  and  _33
REMARK   15  A    between atoms: _33  and  _34
REMARK   16  A    between atoms: _43  and  _45
REMARK   17  A    between atoms: _45  and  _46
REMARK   18  A    between atoms: _45  and  _48
REMARK   19  A    between atoms: _48  and  _49
REMARK   20  A    between atoms: _51  and  _53
REMARK   21  A    between atoms: _53  and  _54
REMARK   22  A    between atoms: _53  and  _56
REMARK   23  A    between atoms: _56  and  _57
REMARK   24  A    between atoms: _62  and  _64
REMARK   25  A    between atoms: _64  and  _65
REMARK   26  A    between atoms: _64  and  _67
REMARK   27  A    between atoms: _67  and  _68
REMARK   28  A    between atoms: _73  and  _74
REMARK   29  A    between atoms: _76  and  _78
REMARK   30  A    between atoms: _78  and  _79
REMARK   31  A    between atoms: _78  and  _81
REMARK   32  A    between atoms: _81  and  _82
REMARK   33  A    between atoms: _82  and  _83
REMARK   34  A    between atoms: _86  and  _88
REMARK   35  A    between atoms: _88  and  _89
REMARK   36  A    between atoms: _88  and  _91
REMARK   37  A    between atoms: _91  and  _92
REMARK   38  A    between atoms: _92  and  _93
REMARK   39  A    between atoms: _93  and  _94
REMARK   40  A    between atoms: _94  and  _95
REMARK   41  A    between atoms: _99  and  _101
REMARK   42  A    between atoms: _101  and  _102
REMARK   43  A    between atoms: _101  and  _104
REMARK   44  A    between atoms: _104  and  _105
REMARK   45  A    between atoms: _110  and  _111
REMARK   46  A    between atoms: _113  and  _115
REMARK   47  A    between atoms: _115  and  _116
REMARK   48  A    between atoms: _115  and  _118
REMARK   49  A    between atoms: _118  and  _119
REMARK   50  A    between atoms: _119  and  _120
REMARK   51  A    between atoms: _120  and  _121
REMARK   52  A    between atoms: _130  and  _132
REMARK   53  A    between atoms: _132  and  _133
REMARK   54  A    between atoms: _136  and  _138
REMARK   55  A    between atoms: _138  and  _139
REMARK   56  A    between atoms: _138  and  _141
REMARK   57  A    between atoms: _141  and  _142
REMARK   58  A    between atoms: _142  and  _258
REMARK   59  A    between atoms: _143  and  _145
REMARK   60  A    between atoms: _145  and  _146
REMARK   61  A    between atoms: _145  and  _148
REMARK   62  A    between atoms: _148  and  _149
REMARK   63  A    between atoms: _149  and  _150
REMARK   64  A    between atoms: _153  and  _155
REMARK   65  A    between atoms: _155  and  _156
REMARK   66  A    between atoms: _155  and  _158
REMARK   67  A    between atoms: _158  and  _159
REMARK   68  A    between atoms: _161  and  _163
REMARK   69  A    between atoms: _163  and  _164
REMARK   70  A    between atoms: _163  and  _166
REMARK   71  A    between atoms: _166  and  _167
REMARK   72  A    between atoms: _172  and  _173
REMARK   73  A    between atoms: _175  and  _177
REMARK   74  A    between atoms: _177  and  _178
REMARK   75  A    between atoms: _177  and  _180
REMARK   76  A    between atoms: _180  and  _181
REMARK   77  A    between atoms: _186  and  _188
REMARK   78  A    between atoms: _188  and  _189
REMARK   79  A    between atoms: _188  and  _191
REMARK   80  A    between atoms: _194  and  _196
REMARK   81  A    between atoms: _196  and  _197
REMARK   82  A    between atoms: _196  and  _199
REMARK   83  A    between atoms: _199  and  _200
REMARK   84  A    between atoms: _200  and  _201
REMARK   85  A    between atoms: _201  and  _202
REMARK   86  A    between atoms: _211  and  _213
REMARK   87  A    between atoms: _213  and  _214
REMARK   88  A    between atoms: _213  and  _216
REMARK   89  A    between atoms: _216  and  _217
REMARK   90  A    between atoms: _222  and  _224
REMARK   91  A    between atoms: _224  and  _225
REMARK   92  A    between atoms: _224  and  _227
REMARK   93  A    between atoms: _227  and  _228
REMARK   94  A    between atoms: _231  and  _233
REMARK   95  A    between atoms: _233  and  _234
REMARK   96  A    between atoms: _236  and  _238
REMARK   97  A    between atoms: _238  and  _239
REMARK   98  A    between atoms: _238  and  _241
REMARK   99  A    between atoms: _241  and  _242
REMARK  100  A    between atoms: _252  and  _254
REMARK  101  A    between atoms: _254  and  _255
REMARK  102  A    between atoms: _254  and  _257
REMARK  103  A    between atoms: _257  and  _258
REMARK  104  A    between atoms: _259  and  _261
REMARK  105  A    between atoms: _261  and  _262
REMARK  106  A    between atoms: _261  and  _264
REMARK  107  A    between atoms: _264  and  _265
REMARK  108  A    between atoms: _268  and  _270
REMARK  109  A    between atoms: _270  and  _271
REMARK  110  A    between atoms: _273  and  _275
REMARK  111  A    between atoms: _275  and  _276
REMARK  112  A    between atoms: _275  and  _278
REMARK  113  A    between atoms: _278  and  _279
REMARK  114  A    between atoms: _284  and  _285
REMARK  115  A    between atoms: _287  and  _289
REMARK  116  A    between atoms: _289  and  _290
REMARK  117  A    between atoms: _289  and  _292
REMARK  118  A    between atoms: _292  and  _293
REMARK  119  A    between atoms: _293  and  _294
REMARK  120  A    between atoms: _294  and  _295
REMARK  121  A    between atoms: _304  and  _306
REMARK  122  A    between atoms: _306  and  _307
REMARK  123  A    between atoms: _306  and  _309
REMARK  124  A    between atoms: _309  and  _310
REMARK  125  A    between atoms: _310  and  _311
REMARK  126  A    between atoms: _311  and  _312
REMARK  127  A    between atoms: _312  and  _313
REMARK  128  A    between atoms: _317  and  _319
REMARK  129  A    between atoms: _319  and  _320
REMARK  130  A    between atoms: _322  and  _324
REMARK  131  A    between atoms: _324  and  _325
REMARK  132  A    between atoms: _328  and  _330
REMARK  133  A    between atoms: _330  and  _331
REMARK  134  A    between atoms: _330  and  _333
REMARK  135  A    between atoms: _333  and  _334
REMARK  136  A    between atoms: _339  and  _341
REMARK  137  A    between atoms: _341  and  _342
REMARK  138  A    between atoms: _345  and  _347
REMARK  139  A    between atoms: _347  and  _348
REMARK  140  A    between atoms: _351  and  _352
REMARK  141  A    between atoms: _357  and  _359
REMARK  142  A    between atoms: _359  and  _360
REMARK  143  A    between atoms: _359  and  _362
REMARK  144  A    between atoms: _362  and  _363
REMARK  145  A    between atoms: _366  and  _368
REMARK  146  A    between atoms: _368  and  _369
REMARK  147  A    between atoms: _368  and  _371
REMARK  148  A    between atoms: _371  and  _372
REMARK  149  A    between atoms: _382  and  _384
REMARK  150  A    between atoms: _384  and  _385
REMARK  151  A    between atoms: _384  and  _387
REMARK  152  A    between atoms: _387  and  _388
REMARK  153  A    between atoms: _394  and  _395
REMARK  154  A    between atoms: _400  and  _402
REMARK  155  A    between atoms: _402  and  _403
REMARK  156  A    between atoms: _402  and  _405
REMARK  157  A    between atoms: _405  and  _406
REMARK  158  A    between atoms: _409  and  _411
REMARK  159  A    between atoms: _411  and  _412
REMARK  160  A    between atoms: _411  and  _414
REMARK  161  A    between atoms: _414  and  _415
REMARK  162  A    between atoms: _417  and  _419
REMARK  163  A    between atoms: _419  and  _420
REMARK  164  A    between atoms: _419  and  _422
REMARK  165  A    between atoms: _422  and  _423
REMARK  166  A    between atoms: _428  and  _430
REMARK  167  A    between atoms: _430  and  _431
REMARK  168  A    between atoms: _430  and  _433
REMARK  169  A    between atoms: _436  and  _438
REMARK  170  A    between atoms: _438  and  _439
REMARK  171  A    between atoms: _438  and  _441
REMARK  172  A    between atoms: _441  and  _442
REMARK  173  A    between atoms: _442  and  _443
REMARK  174  A    between atoms: _449  and  _450
REMARK  175  A    between atoms: _455  and  _457
REMARK  176  A    between atoms: _457  and  _458
REMARK  177  A    between atoms: _457  and  _460
REMARK  178  A    between atoms: _460  and  _461
REMARK  179  A    between atoms: _464  and  _466
REMARK  180  A    between atoms: _466  and  _467
REMARK  181  A    between atoms: _466  and  _469
REMARK  182  A    between atoms: _469  and  _470
REMARK  183  A    between atoms: _473  and  _475
REMARK  184  A    between atoms: _475  and  _476
REMARK  185  A    between atoms: _475  and  _478
REMARK  186  A    between atoms: _478  and  _479
REMARK  187  A    between atoms: _481  and  _483
REMARK  188  A    between atoms: _483  and  _484
REMARK  189  A    between atoms: _483  and  _486
REMARK  190  A    between atoms: _486  and  _487
REMARK  191  A    between atoms: _492  and  _493
REMARK  192  A    between atoms: _495  and  _497
REMARK  193  A    between atoms: _497  and  _498
REMARK  194  A    between atoms: _497  and  _500
REMARK  195  A    between atoms: _500  and  _501
REMARK  196  A    between atoms: _506  and  _508
REMARK  197  A    between atoms: _508  and  _509
REMARK  198  A    between atoms: _508  and  _511
REMARK  199  A    between atoms: _511  and  _512
REMARK  200  A    between atoms: _515  and  _517
REMARK  201  A    between atoms: _517  and  _518
REMARK  202  A    between atoms: _517  and  _520
REMARK  203  A    between atoms: _520  and  _521
REMARK  204  A    between atoms: _531  and  _533
REMARK  205  A    between atoms: _533  and  _534
REMARK  206  A    between atoms: _536  and  _538
REMARK  207  A    between atoms: _538  and  _539
REMARK  208  A    between atoms: _538  and  _541
REMARK  209  A    between atoms: _541  and  _542
REMARK  210  A    between atoms: _547  and  _548
REMARK  211  A    between atoms: _550  and  _552
REMARK  212  A    between atoms: _552  and  _553
REMARK  213  A    between atoms: _552  and  _555
REMARK  214  A    between atoms: _555  and  _556
REMARK  215  A    between atoms: _556  and  _557
REMARK  216  A    between atoms: _557  and  _558
REMARK  217  A    between atoms: _567  and  _569
REMARK  218  A    between atoms: _569  and  _570
REMARK  219  A    between atoms: _569  and  _572
REMARK  220  A    between atoms: _572  and  _573
REMARK  221  A    between atoms: _573  and  _574
REMARK  222  A    between atoms: _574  and  _575
REMARK  223  A    between atoms: _575  and  _576
REMARK  224  A    between atoms: _580  and  _582
REMARK  225  A    between atoms: _582  and  _583
REMARK  226  A    between atoms: _585  and  _587
REMARK  227  A    between atoms: _587  and  _588
REMARK  228  A    between atoms: _591  and  _593
REMARK  229  A    between atoms: _593  and  _594
REMARK  230  A    between atoms: _593  and  _596
REMARK  231  A    between atoms: _596  and  _597
REMARK  232  A    between atoms: _602  and  _604
REMARK  233  A    between atoms: _604  and  _605
REMARK  234  A    between atoms: _608  and  _610
REMARK  235  A    between atoms: _610  and  _611
REMARK  236  A    between atoms: _614  and  _615
REMARK  237  A    between atoms: _620  and  _622
REMARK  238  A    between atoms: _622  and  _623
REMARK  239  A    between atoms: _622  and  _625
REMARK  240  A    between atoms: _625  and  _626
REMARK  241  A    between atoms: _629  and  _631
REMARK  242  A    between atoms: _631  and  _632
REMARK  243  A    between atoms: _631  and  _634
REMARK  244  A    between atoms: _634  and  _635
REMARK  245  A    between atoms: _645  and  _647
REMARK  246  A    between atoms: _647  and  _648
REMARK  247  A    between atoms: _647  and  _650
REMARK  248  A    between atoms: _650  and  _651
REMARK  249  A    between atoms: _657  and  _658
REMARK  250  A    between atoms: _663  and  _665
REMARK  251  A    between atoms: _665  and  _666
REMARK  252  A    between atoms: _665  and  _668
REMARK  253  A    between atoms: _668  and  _669
REMARK  254  A    between atoms: _672  and  _674
REMARK  255  A    between atoms: _674  and  _675
REMARK  256  A    between atoms: _674  and  _677
REMARK  257  A    between atoms: _677  and  _678
REMARK  258  A    between atoms: _678  and  _679
REMARK  259  A    between atoms: _682  and  _684
REMARK  260  A    between atoms: _684  and  _685
REMARK  261  A    between atoms: _684  and  _687
REMARK  262  A    between atoms: _687  and  _688
REMARK  263  A    between atoms: _688  and  _689
REMARK  264  A    between atoms: _689  and  _690
REMARK  265  A    between atoms: _690  and  _691
REMARK  266  A    between atoms: _695  and  _697
REMARK  267  A    between atoms: _697  and  _698
REMARK  268  A    between atoms: _700  and  _702
REMARK  269  A    between atoms: _702  and  _703
REMARK  270  A    between atoms: _702  and  _705
REMARK  271  A    between atoms: _705  and  _706
REMARK  272  A    between atoms: _711  and  _713
REMARK  273  A    between atoms: _713  and  _714
REMARK  274  A    between atoms: _713  and  _716
REMARK  275  A    between atoms: _716  and  _717
REMARK  276  A    between atoms: _717  and  _718
REMARK  277  A    between atoms: _718  and  _719
REMARK  278  A    between atoms: _728  and  _730
REMARK  279  A    between atoms: _730  and  _731
REMARK  280  A    between atoms: _730  and  _733
REMARK  281  A    between atoms: _733  and  _734
REMARK  282  A    between atoms: _737  and  _739
REMARK  283  A    between atoms: _739  and  _740
REMARK  284  A    between atoms: _739  and  _742
REMARK  285  A    between atoms: _745  and  _747
REMARK  286  A    between atoms: _747  and  _748
REMARK  287  A    between atoms: _747  and  _750
REMARK  288  A    between atoms: _750  and  _751
REMARK  289  A    between atoms: _751  and  _752
REMARK  290  A    between atoms: _758  and  _759
REMARK  291  A    between atoms: _764  and  _766
REMARK  292  A    between atoms: _766  and  _767
REMARK  293  A    between atoms: _766  and  _769
REMARK  294  A    between atoms: _769  and  _770
REMARK  295  A    between atoms: _773  and  _775
REMARK  296  A    between atoms: _775  and  _776
REMARK  297  A    between atoms: _775  and  _778
REMARK  298  A    between atoms: _778  and  _779
REMARK  299  A    between atoms: _782  and  _784
REMARK  300  A    between atoms: _784  and  _785
REMARK  301  A    between atoms: _784  and  _787
REMARK  302  A    between atoms: _787  and  _788
REMARK  303  A    between atoms: _790  and  _792
REMARK  304  A    between atoms: _792  and  _793
REMARK  305  A    between atoms: _792  and  _795
REMARK  306  A    between atoms: _795  and  _796
REMARK  307  A    between atoms: _796  and  _797
REMARK  308  A    between atoms: _797  and  _798
REMARK  309  A    between atoms: _807  and  _809
REMARK  310  A    between atoms: _809  and  _810
REMARK                            x       y       z     vdW  Elec       q    Type
REMARK                         _______ _______ _______ _____ _____    ______ ____
ROOT
ATOM      1  O   HOH     1     -27.616 -29.671 -27.761  0.00  0.00    +0.000 OA
ENDROOT
TORSDOF 0
REMARK  Name = ../refined-set-2016/3rt4/3rt4_pocket.pdb
REMARK  310 active torsions:
REMARK  status: ('A' for Active; 'I' for Inactive)
REMARK    1  A    between atoms: _1  and  _3
REMARK    2  A    between atoms: _3  and  _4
REMARK    3  A    between atoms: _3  and  _6
REMARK    4  A    between atoms: _6  and  _7
REMARK    5  A    between atoms: _7  and  _8
REMARK    6  A    between atoms: _8  and  _9
REMARK    7  A    between atoms: _18  and  _20
REMARK    8  A    between atoms: _20  and  _21
REMARK    9  A    between atoms: _20  and  _23
REMARK   10  A    between atoms: _26  and  _28
REMARK   11  A    between atoms: _28  and  _29
REMARK   12  A    between atoms: _28  and  _31
REMARK   13  A    between atoms: _31  and  _32
REMARK   14  A    between atoms: _32  and  _33
REMARK   15  A    between atoms: _33  and  _34
REMARK   16  A    between atoms: _43  and  _45
REMARK   17  A    between atoms: _45  and  _46
REMARK   18  A    between atoms: _45  and  _48
REMARK   19  A    between atoms: _48  and  _49
REMARK   20  A    between atoms: _51  and  _53
REMARK   21  A    between atoms: _53  and  _54
REMARK   22  A    between atoms: _53  and  _56
REMARK   23  A    between atoms: _56  and  _57
REMARK   24  A    between atoms: _62  and  _64
REMARK   25  A    between atoms: _64  and  _65
REMARK   26  A    between atoms: _64  and  _67
REMARK   27  A    between atoms: _67  and  _68
REMARK   28  A    between atoms: _73  and  _74
REMARK   29  A    between atoms: _76  and  _78
REMARK   30  A    between atoms: _78  and  _79
REMARK   31  A    between atoms: _78  and  _81
REMARK   32  A    between atoms: _81  and  _82
REMARK   33  A    between atoms: _82  and  _83
REMARK   34  A    between atoms: _86  and  _88
REMARK   35  A    between atoms: _88  and  _89
REMARK   36  A    between atoms: _88  and  _91
REMARK   37  A    between atoms: _91  and  _92
REMARK   38  A    between atoms: _92  and  _93
REMARK   39  A    between atoms: _93  and  _94
REMARK   40  A    between atoms: _94  and  _95
REMARK   41  A    between atoms: _99  and  _101
REMARK   42  A    between atoms: _101  and  _102
REMARK   43  A    between atoms: _101  and  _104
REMARK   44  A    between atoms: _104  and  _105
REMARK   45  A    between atoms: _110  and  _111
REMARK   46  A    between atoms: _113  and  _115
REMARK   47  A    between atoms: _115  and  _116
REMARK   48  A    between atoms: _115  and  _118
REMARK   49  A    between atoms: _118  and  _119
REMARK   50  A    between atoms: _119  and  _120
REMARK   51  A    between atoms: _120  and  _121
REMARK   52  A    between atoms: _130  and  _132
REMARK   53  A    between atoms: _132  and  _133
REMARK   54  A    between atoms: _136  and  _138
REMARK   55  A    between atoms: _138  and  _139
REMARK   56  A    between atoms: _138  and  _141
REMARK   57  A    between atoms: _141  and  _142
REMARK   58  A    between atoms: _142  and  _258
REMARK   59  A    between atoms: _143  and  _145
REMARK   60  A    between atoms: _145  and  _146
REMARK   61  A    between atoms: _145  and  _148
REMARK   62  A    between atoms: _148  and  _149
REMARK   63  A    between atoms: _149  and  _150
REMARK   64  A    between atoms: _153  and  _155
REMARK   65  A    between atoms: _155  and  _156
REMARK   66  A    between atoms: _155  and  _158
REMARK   67  A    between atoms: _158  and  _159
REMARK   68  A    between atoms: _161  and  _163
REMARK   69  A    between atoms: _163  and  _164
REMARK   70  A    between atoms: _163  and  _166
REMARK   71  A    between atoms: _166  and  _167
REMARK   72  A    between atoms: _172  and  _173
REMARK   73  A    between atoms: _175  and  _177
REMARK   74  A    between atoms: _177  and  _178
REMARK   75  A    between atoms: _177  and  _180
REMARK   76  A    between atoms: _180  and  _181
REMARK   77  A    between atoms: _186  and  _188
REMARK   78  A    between atoms: _188  and  _189
REMARK   79  A    between atoms: _188  and  _191
REMARK   80  A    between atoms: _194  and  _196
REMARK   81  A    between atoms: _196  and  _197
REMARK   82  A    between atoms: _196  and  _199
REMARK   83  A    between atoms: _199  and  _200
REMARK   84  A    between atoms: _200  and  _201
REMARK   85  A    between atoms: _201  and  _202
REMARK   86  A    between atoms: _211  and  _213
REMARK   87  A    between atoms: _213  and  _214
REMARK   88  A    between atoms: _213  and  _216
REMARK   89  A    between atoms: _216  and  _217
REMARK   90  A    between atoms: _222  and  _224
REMARK   91  A    between atoms: _224  and  _225
REMARK   92  A    between atoms: _224  and  _227
REMARK   93  A    between atoms: _227  and  _228
REMARK   94  A    between atoms: _231  and  _233
REMARK   95  A    between atoms: _233  and  _234
REMARK   96  A    between atoms: _236  and  _238
REMARK   97  A    between atoms: _238  and  _239
REMARK   98  A    between atoms: _238  and  _241
REMARK   99  A    between atoms: _241  and  _242
REMARK  100  A    between atoms: _252  and  _254
REMARK  101  A    between atoms: _254  and  _255
REMARK  102  A    between atoms: _254  and  _257
REMARK  103  A    between atoms: _257  and  _258
REMARK  104  A    between atoms: _259  and  _261
REMARK  105  A    between atoms: _261  and  _262
REMARK  106  A    between atoms: _261  and  _264
REMARK  107  A    between atoms: _264  and  _265
REMARK  108  A    between atoms: _268  and  _270
REMARK  109  A    between atoms: _270  and  _271
REMARK  110  A    between atoms: _273  and  _275
REMARK  111  A    between atoms: _275  and  _276
REMARK  112  A    between atoms: _275  and  _278
REMARK  113  A    between atoms: _278  and  _279
REMARK  114  A    between atoms: _284  and  _285
REMARK  115  A    between atoms: _287  and  _289
REMARK  116  A    between atoms: _289  and  _290
REMARK  117  A    between atoms: _289  and  _292
REMARK  118  A    between atoms: _292  and  _293
REMARK  119  A    between atoms: _293  and  _294
REMARK  120  A    between atoms: _294  and  _295
REMARK  121  A    between atoms: _304  and  _306
REMARK  122  A    between atoms: _306  and  _307
REMARK  123  A    between atoms: _306  and  _309
REMARK  124  A    between atoms: _309  and  _310
REMARK  125  A    between atoms: _310  and  _311
REMARK  126  A    between atoms: _311  and  _312
REMARK  127  A    between atoms: _312  and  _313
REMARK  128  A    between atoms: _317  and  _319
REMARK  129  A    between atoms: _319  and  _320
REMARK  130  A    between atoms: _322  and  _324
REMARK  131  A    between atoms: _324  and  _325
REMARK  132  A    between atoms: _328  and  _330
REMARK  133  A    between atoms: _330  and  _331
REMARK  134  A    between atoms: _330  and  _333
REMARK  135  A    between atoms: _333  and  _334
REMARK  136  A    between atoms: _339  and  _341
REMARK  137  A    between atoms: _341  and  _342
REMARK  138  A    between atoms: _345  and  _347
REMARK  139  A    between atoms: _347  and  _348
REMARK  140  A    between atoms: _351  and  _352
REMARK  141  A    between atoms: _357  and  _359
REMARK  142  A    between atoms: _359  and  _360
REMARK  143  A    between atoms: _359  and  _362
REMARK  144  A    between atoms: _362  and  _363
REMARK  145  A    between atoms: _366  and  _368
REMARK  146  A    between atoms: _368  and  _369
REMARK  147  A    between atoms: _368  and  _371
REMARK  148  A    between atoms: _371  and  _372
REMARK  149  A    between atoms: _382  and  _384
REMARK  150  A    between atoms: _384  and  _385
REMARK  151  A    between atoms: _384  and  _387
REMARK  152  A    between atoms: _387  and  _388
REMARK  153  A    between atoms: _394  and  _395
REMARK  154  A    between atoms: _400  and  _402
REMARK  155  A    between atoms: _402  and  _403
REMARK  156  A    between atoms: _402  and  _405
REMARK  157  A    between atoms: _405  and  _406
REMARK  158  A    between atoms: _409  and  _411
REMARK  159  A    between atoms: _411  and  _412
REMARK  160  A    between atoms: _411  and  _414
REMARK  161  A    between atoms: _414  and  _415
REMARK  162  A    between atoms: _417  and  _419
REMARK  163  A    between atoms: _419  and  _420
REMARK  164  A    between atoms: _419  and  _422
REMARK  165  A    between atoms: _422  and  _423
REMARK  166  A    between atoms: _428  and  _430
REMARK  167  A    between atoms: _430  and  _431
REMARK  168  A    between atoms: _430  and  _433
REMARK  169  A    between atoms: _436  and  _438
REMARK  170  A    between atoms: _438  and  _439
REMARK  171  A    between atoms: _438  and  _441
REMARK  172  A    between atoms: _441  and  _442
REMARK  173  A    between atoms: _442  and  _443
REMARK  174  A    between atoms: _449  and  _450
REMARK  175  A    between atoms: _455  and  _457
REMARK  176  A    between atoms: _457  and  _458
REMARK  177  A    between atoms: _457  and  _460
REMARK  178  A    between atoms: _460  and  _461
REMARK  179  A    between atoms: _464  and  _466
REMARK  180  A    between atoms: _466  and  _467
REMARK  181  A    between atoms: _466  and  _469
REMARK  182  A    between atoms: _469  and  _470
REMARK  183  A    between atoms: _473  and  _475
REMARK  184  A    between atoms: _475  and  _476
REMARK  185  A    between atoms: _475  and  _478
REMARK  186  A    between atoms: _478  and  _479
REMARK  187  A    between atoms: _481  and  _483
REMARK  188  A    between atoms: _483  and  _484
REMARK  189  A    between atoms: _483  and  _486
REMARK  190  A    between atoms: _486  and  _487
REMARK  191  A    between atoms: _492  and  _493
REMARK  192  A    between atoms: _495  and  _497
REMARK  193  A    between atoms: _497  and  _498
REMARK  194  A    between atoms: _497  and  _500
REMARK  195  A    between atoms: _500  and  _501
REMARK  196  A    between atoms: _506  and  _508
REMARK  197  A    between atoms: _508  and  _509
REMARK  198  A    between atoms: _508  and  _511
REMARK  199  A    between atoms: _511  and  _512
REMARK  200  A    between atoms: _515  and  _517
REMARK  201  A    between atoms: _517  and  _518
REMARK  202  A    between atoms: _517  and  _520
REMARK  203  A    between atoms: _520  and  _521
REMARK  204  A    between atoms: _531  and  _533
REMARK  205  A    between atoms: _533  and  _534
REMARK  206  A    between atoms: _536  and  _538
REMARK  207  A    between atoms: _538  and  _539
REMARK  208  A    between atoms: _538  and  _541
REMARK  209  A    between atoms: _541  and  _542
REMARK  210  A    between atoms: _547  and  _548
REMARK  211  A    between atoms: _550  and  _552
REMARK  212  A    between atoms: _552  and  _553
REMARK  213  A    between atoms: _552  and  _555
REMARK  214  A    between atoms: _555  and  _556
REMARK  215  A    between atoms: _556  and  _557
REMARK  216  A    between atoms: _557  and  _558
REMARK  217  A    between atoms: _567  and  _569
REMARK  218  A    between atoms: _569  and  _570
REMARK  219  A    between atoms: _569  and  _572
REMARK  220  A    between atoms: _572  and  _573
REMARK  221  A    between atoms: _573  and  _574
REMARK  222  A    between atoms: _574  and  _575
REMARK  223  A    between atoms: _575  and  _576
REMARK  224  A    between atoms: _580  and  _582
REMARK  225  A    between atoms: _582  and  _583
REMARK  226  A    between atoms: _585  and  _587
REMARK  227  A    between atoms: _587  and  _588
REMARK  228  A    between atoms: _591  and  _593
REMARK  229  A    between atoms: _593  and  _594
REMARK  230  A    between atoms: _593  and  _596
REMARK  231  A    between atoms: _596  and  _597
REMARK  232  A    between atoms: _602  and  _604
REMARK  233  A    between atoms: _604  and  _605
REMARK  234  A    between atoms: _608  and  _610
REMARK  235  A    between atoms: _610  and  _611
REMARK  236  A    between atoms: _614  and  _615
REMARK  237  A    between atoms: _620  and  _622
REMARK  238  A    between atoms: _622  and  _623
REMARK  239  A    between atoms: _622  and  _625
REMARK  240  A    between atoms: _625  and  _626
REMARK  241  A    between atoms: _629  and  _631
REMARK  242  A    between atoms: _631  and  _632
REMARK  243  A    between atoms: _631  and  _634
REMARK  244  A    between atoms: _634  and  _635
REMARK  245  A    between atoms: _645  and  _647
REMARK  246  A    between atoms: _647  and  _648
REMARK  247  A    between atoms: _647  and  _650
REMARK  248  A    between atoms: _650  and  _651
REMARK  249  A    between atoms: _657  and  _658
REMARK  250  A    between atoms: _663  and  _665
REMARK  251  A    between atoms: _665  and  _666
REMARK  252  A    between atoms: _665  and  _668
REMARK  253  A    between atoms: _668  and  _669
REMARK  254  A    between atoms: _672  and  _674
REMARK  255  A    between atoms: _674  and  _675
REMARK  256  A    between atoms: _674  and  _677
REMARK  257  A    between atoms: _677  and  _678
REMARK  258  A    between atoms: _678  and  _679
REMARK  259  A    between atoms: _682  and  _684
REMARK  260  A    between atoms: _684  and  _685
REMARK  261  A    between atoms: _684  and  _687
REMARK  262  A    between atoms: _687  and  _688
REMARK  263  A    between atoms: _688  and  _689
REMARK  264  A    between atoms: _689  and  _690
REMARK  265  A    between atoms: _690  and  _691
REMARK  266  A    between atoms: _695  and  _697
REMARK  267  A    between atoms: _697  and  _698
REMARK  268  A    between atoms: _700  and  _702
REMARK  269  A    between atoms: _702  and  _703
REMARK  270  A    between atoms: _702  and  _705
REMARK  271  A    between atoms: _705  and  _706
REMARK  272  A    between atoms: _711  and  _713
REMARK  273  A    between atoms: _713  and  _714
REMARK  274  A    between atoms: _713  and  _716
REMARK  275  A    between atoms: _716  and  _717
REMARK  276  A    between atoms: _717  and  _718
REMARK  277  A    between atoms: _718  and  _719
REMARK  278  A    between atoms: _728  and  _730
REMARK  279  A    between atoms: _730  and  _731
REMARK  280  A    between atoms: _730  and  _733
REMARK  281  A    between atoms: _733  and  _734
REMARK  282  A    between atoms: _737  and  _739
REMARK  283  A    between atoms: _739  and  _740
REMARK  284  A    between atoms: _739  and  _742
REMARK  285  A    between atoms: _745  and  _747
REMARK  286  A    between atoms: _747  and  _748
REMARK  287  A    between atoms: _747  and  _750
REMARK  288  A    between atoms: _750  and  _751
REMARK  289  A    between atoms: _751  and  _752
REMARK  290  A    between atoms: _758  and  _759
REMARK  291  A    between atoms: _764  and  _766
REMARK  292  A    between atoms: _766  and  _767
REMARK  293  A    between atoms: _766  and  _769
REMARK  294  A    between atoms: _769  and  _770
REMARK  295  A    between atoms: _773  and  _775
REMARK  296  A    between atoms: _775  and  _776
REMARK  297  A    between atoms: _775  and  _778
REMARK  298  A    between atoms: _778  and  _779
REMARK  299  A    between atoms: _782  and  _784
REMARK  300  A    between atoms: _784  and  _785
REMARK  301  A    between atoms: _784  and  _787
REMARK  302  A    between atoms: _787  and  _788
REMARK  303  A    between atoms: _790  and  _792
REMARK  304  A    between atoms: _792  and  _793
REMARK  305  A    between atoms: _792  and  _795
REMARK  306  A    between atoms: _795  and  _796
REMARK  307  A    between atoms: _796  and  _797
REMARK  308  A    between atoms: _797  and  _798
REMARK  309  A    between atoms: _807  and  _809
REMARK  310  A    between atoms: _809  and  _810
REMARK                            x       y       z     vdW  Elec       q    Type
REMARK                         _______ _______ _______ _____ _____    ______ ____
ROOT
ATOM      1  O   HOH     1     -23.028 -17.939 -21.136  0.00  0.00    +0.000 OA
ENDROOT
TORSDOF 0
REMARK  Name = ../refined-set-2016/3rt4/3rt4_pocket.pdb
REMARK  310 active torsions:
REMARK  status: ('A' for Active; 'I' for Inactive)
REMARK    1  A    between atoms: _1  and  _3
REMARK    2  A    between atoms: _3  and  _4
REMARK    3  A    between atoms: _3  and  _6
REMARK    4  A    between atoms: _6  and  _7
REMARK    5  A    between atoms: _7  and  _8
REMARK    6  A    between atoms: _8  and  _9
REMARK    7  A    between atoms: _18  and  _20
REMARK    8  A    between atoms: _20  and  _21
REMARK    9  A    between atoms: _20  and  _23
REMARK   10  A    between atoms: _26  and  _28
REMARK   11  A    between atoms: _28  and  _29
REMARK   12  A    between atoms: _28  and  _31
REMARK   13  A    between atoms: _31  and  _32
REMARK   14  A    between atoms: _32  and  _33
REMARK   15  A    between atoms: _33  and  _34
REMARK   16  A    between atoms: _43  and  _45
REMARK   17  A    between atoms: _45  and  _46
REMARK   18  A    between atoms: _45  and  _48
REMARK   19  A    between atoms: _48  and  _49
REMARK   20  A    between atoms: _51  and  _53
REMARK   21  A    between atoms: _53  and  _54
REMARK   22  A    between atoms: _53  and  _56
REMARK   23  A    between atoms: _56  and  _57
REMARK   24  A    between atoms: _62  and  _64
REMARK   25  A    between atoms: _64  and  _65
REMARK   26  A    between atoms: _64  and  _67
REMARK   27  A    between atoms: _67  and  _68
REMARK   28  A    between atoms: _73  and  _74
REMARK   29  A    between atoms: _76  and  _78
REMARK   30  A    between atoms: _78  and  _79
REMARK   31  A    between atoms: _78  and  _81
REMARK   32  A    between atoms: _81  and  _82
REMARK   33  A    between atoms: _82  and  _83
REMARK   34  A    between atoms: _86  and  _88
REMARK   35  A    between atoms: _88  and  _89
REMARK   36  A    between atoms: _88  and  _91
REMARK   37  A    between atoms: _91  and  _92
REMARK   38  A    between atoms: _92  and  _93
REMARK   39  A    between atoms: _93  and  _94
REMARK   40  A    between atoms: _94  and  _95
REMARK   41  A    between atoms: _99  and  _101
REMARK   42  A    between atoms: _101  and  _102
REMARK   43  A    between atoms: _101  and  _104
REMARK   44  A    between atoms: _104  and  _105
REMARK   45  A    between atoms: _110  and  _111
REMARK   46  A    between atoms: _113  and  _115
REMARK   47  A    between atoms: _115  and  _116
REMARK   48  A    between atoms: _115  and  _118
REMARK   49  A    between atoms: _118  and  _119
REMARK   50  A    between atoms: _119  and  _120
REMARK   51  A    between atoms: _120  and  _121
REMARK   52  A    between atoms: _130  and  _132
REMARK   53  A    between atoms: _132  and  _133
REMARK   54  A    between atoms: _136  and  _138
REMARK   55  A    between atoms: _138  and  _139
REMARK   56  A    between atoms: _138  and  _141
REMARK   57  A    between atoms: _141  and  _142
REMARK   58  A    between atoms: _142  and  _258
REMARK   59  A    between atoms: _143  and  _145
REMARK   60  A    between atoms: _145  and  _146
REMARK   61  A    between atoms: _145  and  _148
REMARK   62  A    between atoms: _148  and  _149
REMARK   63  A    between atoms: _149  and  _150
REMARK   64  A    between atoms: _153  and  _155
REMARK   65  A    between atoms: _155  and  _156
REMARK   66  A    between atoms: _155  and  _158
REMARK   67  A    between atoms: _158  and  _159
REMARK   68  A    between atoms: _161  and  _163
REMARK   69  A    between atoms: _163  and  _164
REMARK   70  A    between atoms: _163  and  _166
REMARK   71  A    between atoms: _166  and  _167
REMARK   72  A    between atoms: _172  and  _173
REMARK   73  A    between atoms: _175  and  _177
REMARK   74  A    between atoms: _177  and  _178
REMARK   75  A    between atoms: _177  and  _180
REMARK   76  A    between atoms: _180  and  _181
REMARK   77  A    between atoms: _186  and  _188
REMARK   78  A    between atoms: _188  and  _189
REMARK   79  A    between atoms: _188  and  _191
REMARK   80  A    between atoms: _194  and  _196
REMARK   81  A    between atoms: _196  and  _197
REMARK   82  A    between atoms: _196  and  _199
REMARK   83  A    between atoms: _199  and  _200
REMARK   84  A    between atoms: _200  and  _201
REMARK   85  A    between atoms: _201  and  _202
REMARK   86  A    between atoms: _211  and  _213
REMARK   87  A    between atoms: _213  and  _214
REMARK   88  A    between atoms: _213  and  _216
REMARK   89  A    between atoms: _216  and  _217
REMARK   90  A    between atoms: _222  and  _224
REMARK   91  A    between atoms: _224  and  _225
REMARK   92  A    between atoms: _224  and  _227
REMARK   93  A    between atoms: _227  and  _228
REMARK   94  A    between atoms: _231  and  _233
REMARK   95  A    between atoms: _233  and  _234
REMARK   96  A    between atoms: _236  and  _238
REMARK   97  A    between atoms: _238  and  _239
REMARK   98  A    between atoms: _238  and  _241
REMARK   99  A    between atoms: _241  and  _242
REMARK  100  A    between atoms: _252  and  _254
REMARK  101  A    between atoms: _254  and  _255
REMARK  102  A    between atoms: _254  and  _257
REMARK  103  A    between atoms: _257  and  _258
REMARK  104  A    between atoms: _259  and  _261
REMARK  105  A    between atoms: _261  and  _262
REMARK  106  A    between atoms: _261  and  _264
REMARK  107  A    between atoms: _264  and  _265
REMARK  108  A    between atoms: _268  and  _270
REMARK  109  A    between atoms: _270  and  _271
REMARK  110  A    between atoms: _273  and  _275
REMARK  111  A    between atoms: _275  and  _276
REMARK  112  A    between atoms: _275  and  _278
REMARK  113  A    between atoms: _278  and  _279
REMARK  114  A    between atoms: _284  and  _285
REMARK  115  A    between atoms: _287  and  _289
REMARK  116  A    between atoms: _289  and  _290
REMARK  117  A    between atoms: _289  and  _292
REMARK  118  A    between atoms: _292  and  _293
REMARK  119  A    between atoms: _293  and  _294
REMARK  120  A    between atoms: _294  and  _295
REMARK  121  A    between atoms: _304  and  _306
REMARK  122  A    between atoms: _306  and  _307
REMARK  123  A    between atoms: _306  and  _309
REMARK  124  A    between atoms: _309  and  _310
REMARK  125  A    between atoms: _310  and  _311
REMARK  126  A    between atoms: _311  and  _312
REMARK  127  A    between atoms: _312  and  _313
REMARK  128  A    between atoms: _317  and  _319
REMARK  129  A    between atoms: _319  and  _320
REMARK  130  A    between atoms: _322  and  _324
REMARK  131  A    between atoms: _324  and  _325
REMARK  132  A    between atoms: _328  and  _330
REMARK  133  A    between atoms: _330  and  _331
REMARK  134  A    between atoms: _330  and  _333
REMARK  135  A    between atoms: _333  and  _334
REMARK  136  A    between atoms: _339  and  _341
REMARK  137  A    between atoms: _341  and  _342
REMARK  138  A    between atoms: _345  and  _347
REMARK  139  A    between atoms: _347  and  _348
REMARK  140  A    between atoms: _351  and  _352
REMARK  141  A    between atoms: _357  and  _359
REMARK  142  A    between atoms: _359  and  _360
REMARK  143  A    between atoms: _359  and  _362
REMARK  144  A    between atoms: _362  and  _363
REMARK  145  A    between atoms: _366  and  _368
REMARK  146  A    between atoms: _368  and  _369
REMARK  147  A    between atoms: _368  and  _371
REMARK  148  A    between atoms: _371  and  _372
REMARK  149  A    between atoms: _382  and  _384
REMARK  150  A    between atoms: _384  and  _385
REMARK  151  A    between atoms: _384  and  _387
REMARK  152  A    between atoms: _387  and  _388
REMARK  153  A    between atoms: _394  and  _395
REMARK  154  A    between atoms: _400  and  _402
REMARK  155  A    between atoms: _402  and  _403
REMARK  156  A    between atoms: _402  and  _405
REMARK  157  A    between atoms: _405  and  _406
REMARK  158  A    between atoms: _409  and  _411
REMARK  159  A    between atoms: _411  and  _412
REMARK  160  A    between atoms: _411  and  _414
REMARK  161  A    between atoms: _414  and  _415
REMARK  162  A    between atoms: _417  and  _419
REMARK  163  A    between atoms: _419  and  _420
REMARK  164  A    between atoms: _419  and  _422
REMARK  165  A    between atoms: _422  and  _423
REMARK  166  A    between atoms: _428  and  _430
REMARK  167  A    between atoms: _430  and  _431
REMARK  168  A    between atoms: _430  and  _433
REMARK  169  A    between atoms: _436  and  _438
REMARK  170  A    between atoms: _438  and  _439
REMARK  171  A    between atoms: _438  and  _441
REMARK  172  A    between atoms: _441  and  _442
REMARK  173  A    between atoms: _442  and  _443
REMARK  174  A    between atoms: _449  and  _450
REMARK  175  A    between atoms: _455  and  _457
REMARK  176  A    between atoms: _457  and  _458
REMARK  177  A    between atoms: _457  and  _460
REMARK  178  A    between atoms: _460  and  _461
REMARK  179  A    between atoms: _464  and  _466
REMARK  180  A    between atoms: _466  and  _467
REMARK  181  A    between atoms: _466  and  _469
REMARK  182  A    between atoms: _469  and  _470
REMARK  183  A    between atoms: _473  and  _475
REMARK  184  A    between atoms: _475  and  _476
REMARK  185  A    between atoms: _475  and  _478
REMARK  186  A    between atoms: _478  and  _479
REMARK  187  A    between atoms: _481  and  _483
REMARK  188  A    between atoms: _483  and  _484
REMARK  189  A    between atoms: _483  and  _486
REMARK  190  A    between atoms: _486  and  _487
REMARK  191  A    between atoms: _492  and  _493
REMARK  192  A    between atoms: _495  and  _497
REMARK  193  A    between atoms: _497  and  _498
REMARK  194  A    between atoms: _497  and  _500
REMARK  195  A    between atoms: _500  and  _501
REMARK  196  A    between atoms: _506  and  _508
REMARK  197  A    between atoms: _508  and  _509
REMARK  198  A    between atoms: _508  and  _511
REMARK  199  A    between atoms: _511  and  _512
REMARK  200  A    between atoms: _515  and  _517
REMARK  201  A    between atoms: _517  and  _518
REMARK  202  A    between atoms: _517  and  _520
REMARK  203  A    between atoms: _520  and  _521
REMARK  204  A    between atoms: _531  and  _533
REMARK  205  A    between atoms: _533  and  _534
REMARK  206  A    between atoms: _536  and  _538
REMARK  207  A    between atoms: _538  and  _539
REMARK  208  A    between atoms: _538  and  _541
REMARK  209  A    between atoms: _541  and  _542
REMARK  210  A    between atoms: _547  and  _548
REMARK  211  A    between atoms: _550  and  _552
REMARK  212  A    between atoms: _552  and  _553
REMARK  213  A    between atoms: _552  and  _555
REMARK  214  A    between atoms: _555  and  _556
REMARK  215  A    between atoms: _556  and  _557
REMARK  216  A    between atoms: _557  and  _558
REMARK  217  A    between atoms: _567  and  _569
REMARK  218  A    between atoms: _569  and  _570
REMARK  219  A    between atoms: _569  and  _572
REMARK  220  A    between atoms: _572  and  _573
REMARK  221  A    between atoms: _573  and  _574
REMARK  222  A    between atoms: _574  and  _575
REMARK  223  A    between atoms: _575  and  _576
REMARK  224  A    between atoms: _580  and  _582
REMARK  225  A    between atoms: _582  and  _583
REMARK  226  A    between atoms: _585  and  _587
REMARK  227  A    between atoms: _587  and  _588
REMARK  228  A    between atoms: _591  and  _593
REMARK  229  A    between atoms: _593  and  _594
REMARK  230  A    between atoms: _593  and  _596
REMARK  231  A    between atoms: _596  and  _597
REMARK  232  A    between atoms: _602  and  _604
REMARK  233  A    between atoms: _604  and  _605
REMARK  234  A    between atoms: _608  and  _610
REMARK  235  A    between atoms: _610  and  _611
REMARK  236  A    between atoms: _614  and  _615
REMARK  237  A    between atoms: _620  and  _622
REMARK  238  A    between atoms: _622  and  _623
REMARK  239  A    between atoms: _622  and  _625
REMARK  240  A    between atoms: _625  and  _626
REMARK  241  A    between atoms: _629  and  _631
REMARK  242  A    between atoms: _631  and  _632
REMARK  243  A    between atoms: _631  and  _634
REMARK  244  A    between atoms: _634  and  _635
REMARK  245  A    between atoms: _645  and  _647
REMARK  246  A    between atoms: _647  and  _648
REMARK  247  A    between atoms: _647  and  _650
REMARK  248  A    between atoms: _650  and  _651
REMARK  249  A    between atoms: _657  and  _658
REMARK  250  A    between atoms: _663  and  _665
REMARK  251  A    between atoms: _665  and  _666
REMARK  252  A    between atoms: _665  and  _668
REMARK  253  A    between atoms: _668  and  _669
REMARK  254  A    between atoms: _672  and  _674
REMARK  255  A    between atoms: _674  and  _675
REMARK  256  A    between atoms: _674  and  _677
REMARK  257  A    between atoms: _677  and  _678
REMARK  258  A    between atoms: _678  and  _679
REMARK  259  A    between atoms: _682  and  _684
REMARK  260  A    between atoms: _684  and  _685
REMARK  261  A    between atoms: _684  and  _687
REMARK  262  A    between atoms: _687  and  _688
REMARK  263  A    between atoms: _688  and  _689
REMARK  264  A    between atoms: _689  and  _690
REMARK  265  A    between atoms: _690  and  _691
REMARK  266  A    between atoms: _695  and  _697
REMARK  267  A    between atoms: _697  and  _698
REMARK  268  A    between atoms: _700  and  _702
REMARK  269  A    between atoms: _702  and  _703
REMARK  270  A    between atoms: _702  and  _705
REMARK  271  A    between atoms: _705  and  _706
REMARK  272  A    between atoms: _711  and  _713
REMARK  273  A    between atoms: _713  and  _714
REMARK  274  A    between atoms: _713  and  _716
REMARK  275  A    between atoms: _716  and  _717
REMARK  276  A    between atoms: _717  and  _718
REMARK  277  A    between atoms: _718  and  _719
REMARK  278  A    between atoms: _728  and  _730
REMARK  279  A    between atoms: _730  and  _731
REMARK  280  A    between atoms: _730  and  _733
REMARK  281  A    between atoms: _733  and  _734
REMARK  282  A    between atoms: _737  and  _739
REMARK  283  A    between atoms: _739  and  _740
REMARK  284  A    between atoms: _739  and  _742
REMARK  285  A    between atoms: _745  and  _747
REMARK  286  A    between atoms: _747  and  _748
REMARK  287  A    between atoms: _747  and  _750
REMARK  288  A    between atoms: _750  and  _751
REMARK  289  A    between atoms: _751  and  _752
REMARK  290  A    between atoms: _758  and  _759
REMARK  291  A    between atoms: _764  and  _766
REMARK  292  A    between atoms: _766  and  _767
REMARK  293  A    between atoms: _766  and  _769
REMARK  294  A    between atoms: _769  and  _770
REMARK  295  A    between atoms: _773  and  _775
REMARK  296  A    between atoms: _775  and  _776
REMARK  297  A    between atoms: _775  and  _778
REMARK  298  A    between atoms: _778  and  _779
REMARK  299  A    between atoms: _782  and  _784
REMARK  300  A    between atoms: _784  and  _785
REMARK  301  A    between atoms: _784  and  _787
REMARK  302  A    between atoms: _787  and  _788
REMARK  303  A    between atoms: _790  and  _792
REMARK  304  A    between atoms: _792  and  _793
REMARK  305  A    between atoms: _792  and  _795
REMARK  306  A    between atoms: _795  and  _796
REMARK  307  A    between atoms: _796  and  _797
REMARK  308  A    between atoms: _797  and  _798
REMARK  309  A    between atoms: _807  and  _809
REMARK  310  A    between atoms: _809  and  _810
REMARK                            x       y       z     vdW  Elec       q    Type
REMARK                         _______ _______ _______ _____ _____    ______ ____
ROOT
ATOM      1  O   HOH     1     -22.540 -19.722 -19.335  0.00  0.00    +0.000 OA
ENDROOT
TORSDOF 0
REMARK  Name = ../refined-set-2016/3rt4/3rt4_pocket.pdb
REMARK  310 active torsions:
REMARK  status: ('A' for Active; 'I' for Inactive)
REMARK    1  A    between atoms: _1  and  _3
REMARK    2  A    between atoms: _3  and  _4
REMARK    3  A    between atoms: _3  and  _6
REMARK    4  A    between atoms: _6  and  _7
REMARK    5  A    between atoms: _7  and  _8
REMARK    6  A    between atoms: _8  and  _9
REMARK    7  A    between atoms: _18  and  _20
REMARK    8  A    between atoms: _20  and  _21
REMARK    9  A    between atoms: _20  and  _23
REMARK   10  A    between atoms: _26  and  _28
REMARK   11  A    between atoms: _28  and  _29
REMARK   12  A    between atoms: _28  and  _31
REMARK   13  A    between atoms: _31  and  _32
REMARK   14  A    between atoms: _32  and  _33
REMARK   15  A    between atoms: _33  and  _34
REMARK   16  A    between atoms: _43  and  _45
REMARK   17  A    between atoms: _45  and  _46
REMARK   18  A    between atoms: _45  and  _48
REMARK   19  A    between atoms: _48  and  _49
REMARK   20  A    between atoms: _51  and  _53
REMARK   21  A    between atoms: _53  and  _54
REMARK   22  A    between atoms: _53  and  _56
REMARK   23  A    between atoms: _56  and  _57
REMARK   24  A    between atoms: _62  and  _64
REMARK   25  A    between atoms: _64  and  _65
REMARK   26  A    between atoms: _64  and  _67
REMARK   27  A    between atoms: _67  and  _68
REMARK   28  A    between atoms: _73  and  _74
REMARK   29  A    between atoms: _76  and  _78
REMARK   30  A    between atoms: _78  and  _79
REMARK   31  A    between atoms: _78  and  _81
REMARK   32  A    between atoms: _81  and  _82
REMARK   33  A    between atoms: _82  and  _83
REMARK   34  A    between atoms: _86  and  _88
REMARK   35  A    between atoms: _88  and  _89
REMARK   36  A    between atoms: _88  and  _91
REMARK   37  A    between atoms: _91  and  _92
REMARK   38  A    between atoms: _92  and  _93
REMARK   39  A    between atoms: _93  and  _94
REMARK   40  A    between atoms: _94  and  _95
REMARK   41  A    between atoms: _99  and  _101
REMARK   42  A    between atoms: _101  and  _102
REMARK   43  A    between atoms: _101  and  _104
REMARK   44  A    between atoms: _104  and  _105
REMARK   45  A    between atoms: _110  and  _111
REMARK   46  A    between atoms: _113  and  _115
REMARK   47  A    between atoms: _115  and  _116
REMARK   48  A    between atoms: _115  and  _118
REMARK   49  A    between atoms: _118  and  _119
REMARK   50  A    between atoms: _119  and  _120
REMARK   51  A    between atoms: _120  and  _121
REMARK   52  A    between atoms: _130  and  _132
REMARK   53  A    between atoms: _132  and  _133
REMARK   54  A    between atoms: _136  and  _138
REMARK   55  A    between atoms: _138  and  _139
REMARK   56  A    between atoms: _138  and  _141
REMARK   57  A    between atoms: _141  and  _142
REMARK   58  A    between atoms: _142  and  _258
REMARK   59  A    between atoms: _143  and  _145
REMARK   60  A    between atoms: _145  and  _146
REMARK   61  A    between atoms: _145  and  _148
REMARK   62  A    between atoms: _148  and  _149
REMARK   63  A    between atoms: _149  and  _150
REMARK   64  A    between atoms: _153  and  _155
REMARK   65  A    between atoms: _155  and  _156
REMARK   66  A    between atoms: _155  and  _158
REMARK   67  A    between atoms: _158  and  _159
REMARK   68  A    between atoms: _161  and  _163
REMARK   69  A    between atoms: _163  and  _164
REMARK   70  A    between atoms: _163  and  _166
REMARK   71  A    between atoms: _166  and  _167
REMARK   72  A    between atoms: _172  and  _173
REMARK   73  A    between atoms: _175  and  _177
REMARK   74  A    between atoms: _177  and  _178
REMARK   75  A    between atoms: _177  and  _180
REMARK   76  A    between atoms: _180  and  _181
REMARK   77  A    between atoms: _186  and  _188
REMARK   78  A    between atoms: _188  and  _189
REMARK   79  A    between atoms: _188  and  _191
REMARK   80  A    between atoms: _194  and  _196
REMARK   81  A    between atoms: _196  and  _197
REMARK   82  A    between atoms: _196  and  _199
REMARK   83  A    between atoms: _199  and  _200
REMARK   84  A    between atoms: _200  and  _201
REMARK   85  A    between atoms: _201  and  _202
REMARK   86  A    between atoms: _211  and  _213
REMARK   87  A    between atoms: _213  and  _214
REMARK   88  A    between atoms: _213  and  _216
REMARK   89  A    between atoms: _216  and  _217
REMARK   90  A    between atoms: _222  and  _224
REMARK   91  A    between atoms: _224  and  _225
REMARK   92  A    between atoms: _224  and  _227
REMARK   93  A    between atoms: _227  and  _228
REMARK   94  A    between atoms: _231  and  _233
REMARK   95  A    between atoms: _233  and  _234
REMARK   96  A    between atoms: _236  and  _238
REMARK   97  A    between atoms: _238  and  _239
REMARK   98  A    between atoms: _238  and  _241
REMARK   99  A    between atoms: _241  and  _242
REMARK  100  A    between atoms: _252  and  _254
REMARK  101  A    between atoms: _254  and  _255
REMARK  102  A    between atoms: _254  and  _257
REMARK  103  A    between atoms: _257  and  _258
REMARK  104  A    between atoms: _259  and  _261
REMARK  105  A    between atoms: _261  and  _262
REMARK  106  A    between atoms: _261  and  _264
REMARK  107  A    between atoms: _264  and  _265
REMARK  108  A    between atoms: _268  and  _270
REMARK  109  A    between atoms: _270  and  _271
REMARK  110  A    between atoms: _273  and  _275
REMARK  111  A    between atoms: _275  and  _276
REMARK  112  A    between atoms: _275  and  _278
REMARK  113  A    between atoms: _278  and  _279
REMARK  114  A    between atoms: _284  and  _285
REMARK  115  A    between atoms: _287  and  _289
REMARK  116  A    between atoms: _289  and  _290
REMARK  117  A    between atoms: _289  and  _292
REMARK  118  A    between atoms: _292  and  _293
REMARK  119  A    between atoms: _293  and  _294
REMARK  120  A    between atoms: _294  and  _295
REMARK  121  A    between atoms: _304  and  _306
REMARK  122  A    between atoms: _306  and  _307
REMARK  123  A    between atoms: _306  and  _309
REMARK  124  A    between atoms: _309  and  _310
REMARK  125  A    between atoms: _310  and  _311
REMARK  126  A    between atoms: _311  and  _312
REMARK  127  A    between atoms: _312  and  _313
REMARK  128  A    between atoms: _317  and  _319
REMARK  129  A    between atoms: _319  and  _320
REMARK  130  A    between atoms: _322  and  _324
REMARK  131  A    between atoms: _324  and  _325
REMARK  132  A    between atoms: _328  and  _330
REMARK  133  A    between atoms: _330  and  _331
REMARK  134  A    between atoms: _330  and  _333
REMARK  135  A    between atoms: _333  and  _334
REMARK  136  A    between atoms: _339  and  _341
REMARK  137  A    between atoms: _341  and  _342
REMARK  138  A    between atoms: _345  and  _347
REMARK  139  A    between atoms: _347  and  _348
REMARK  140  A    between atoms: _351  and  _352
REMARK  141  A    between atoms: _357  and  _359
REMARK  142  A    between atoms: _359  and  _360
REMARK  143  A    between atoms: _359  and  _362
REMARK  144  A    between atoms: _362  and  _363
REMARK  145  A    between atoms: _366  and  _368
REMARK  146  A    between atoms: _368  and  _369
REMARK  147  A    between atoms: _368  and  _371
REMARK  148  A    between atoms: _371  and  _372
REMARK  149  A    between atoms: _382  and  _384
REMARK  150  A    between atoms: _384  and  _385
REMARK  151  A    between atoms: _384  and  _387
REMARK  152  A    between atoms: _387  and  _388
REMARK  153  A    between atoms: _394  and  _395
REMARK  154  A    between atoms: _400  and  _402
REMARK  155  A    between atoms: _402  and  _403
REMARK  156  A    between atoms: _402  and  _405
REMARK  157  A    between atoms: _405  and  _406
REMARK  158  A    between atoms: _409  and  _411
REMARK  159  A    between atoms: _411  and  _412
REMARK  160  A    between atoms: _411  and  _414
REMARK  161  A    between atoms: _414  and  _415
REMARK  162  A    between atoms: _417  and  _419
REMARK  163  A    between atoms: _419  and  _420
REMARK  164  A    between atoms: _419  and  _422
REMARK  165  A    between atoms: _422  and  _423
REMARK  166  A    between atoms: _428  and  _430
REMARK  167  A    between atoms: _430  and  _431
REMARK  168  A    between atoms: _430  and  _433
REMARK  169  A    between atoms: _436  and  _438
REMARK  170  A    between atoms: _438  and  _439
REMARK  171  A    between atoms: _438  and  _441
REMARK  172  A    between atoms: _441  and  _442
REMARK  173  A    between atoms: _442  and  _443
REMARK  174  A    between atoms: _449  and  _450
REMARK  175  A    between atoms: _455  and  _457
REMARK  176  A    between atoms: _457  and  _458
REMARK  177  A    between atoms: _457  and  _460
REMARK  178  A    between atoms: _460  and  _461
REMARK  179  A    between atoms: _464  and  _466
REMARK  180  A    between atoms: _466  and  _467
REMARK  181  A    between atoms: _466  and  _469
REMARK  182  A    between atoms: _469  and  _470
REMARK  183  A    between atoms: _473  and  _475
REMARK  184  A    between atoms: _475  and  _476
REMARK  185  A    between atoms: _475  and  _478
REMARK  186  A    between atoms: _478  and  _479
REMARK  187  A    between atoms: _481  and  _483
REMARK  188  A    between atoms: _483  and  _484
REMARK  189  A    between atoms: _483  and  _486
REMARK  190  A    between atoms: _486  and  _487
REMARK  191  A    between atoms: _492  and  _493
REMARK  192  A    between atoms: _495  and  _497
REMARK  193  A    between atoms: _497  and  _498
REMARK  194  A    between atoms: _497  and  _500
REMARK  195  A    between atoms: _500  and  _501
REMARK  196  A    between atoms: _506  and  _508
REMARK  197  A    between atoms: _508  and  _509
REMARK  198  A    between atoms: _508  and  _511
REMARK  199  A    between atoms: _511  and  _512
REMARK  200  A    between atoms: _515  and  _517
REMARK  201  A    between atoms: _517  and  _518
REMARK  202  A    between atoms: _517  and  _520
REMARK  203  A    between atoms: _520  and  _521
REMARK  204  A    between atoms: _531  and  _533
REMARK  205  A    between atoms: _533  and  _534
REMARK  206  A    between atoms: _536  and  _538
REMARK  207  A    between atoms: _538  and  _539
REMARK  208  A    between atoms: _538  and  _541
REMARK  209  A    between atoms: _541  and  _542
REMARK  210  A    between atoms: _547  and  _548
REMARK  211  A    between atoms: _550  and  _552
REMARK  212  A    between atoms: _552  and  _553
REMARK  213  A    between atoms: _552  and  _555
REMARK  214  A    between atoms: _555  and  _556
REMARK  215  A    between atoms: _556  and  _557
REMARK  216  A    between atoms: _557  and  _558
REMARK  217  A    between atoms: _567  and  _569
REMARK  218  A    between atoms: _569  and  _570
REMARK  219  A    between atoms: _569  and  _572
REMARK  220  A    between atoms: _572  and  _573
REMARK  221  A    between atoms: _573  and  _574
REMARK  222  A    between atoms: _574  and  _575
REMARK  223  A    between atoms: _575  and  _576
REMARK  224  A    between atoms: _580  and  _582
REMARK  225  A    between atoms: _582  and  _583
REMARK  226  A    between atoms: _585  and  _587
REMARK  227  A    between atoms: _587  and  _588
REMARK  228  A    between atoms: _591  and  _593
REMARK  229  A    between atoms: _593  and  _594
REMARK  230  A    between atoms: _593  and  _596
REMARK  231  A    between atoms: _596  and  _597
REMARK  232  A    between atoms: _602  and  _604
REMARK  233  A    between atoms: _604  and  _605
REMARK  234  A    between atoms: _608  and  _610
REMARK  235  A    between atoms: _610  and  _611
REMARK  236  A    between atoms: _614  and  _615
REMARK  237  A    between atoms: _620  and  _622
REMARK  238  A    between atoms: _622  and  _623
REMARK  239  A    between atoms: _622  and  _625
REMARK  240  A    between atoms: _625  and  _626
REMARK  241  A    between atoms: _629  and  _631
REMARK  242  A    between atoms: _631  and  _632
REMARK  243  A    between atoms: _631  and  _634
REMARK  244  A    between atoms: _634  and  _635
REMARK  245  A    between atoms: _645  and  _647
REMARK  246  A    between atoms: _647  and  _648
REMARK  247  A    between atoms: _647  and  _650
REMARK  248  A    between atoms: _650  and  _651
REMARK  249  A    between atoms: _657  and  _658
REMARK  250  A    between atoms: _663  and  _665
REMARK  251  A    between atoms: _665  and  _666
REMARK  252  A    between atoms: _665  and  _668
REMARK  253  A    between atoms: _668  and  _669
REMARK  254  A    between atoms: _672  and  _674
REMARK  255  A    between atoms: _674  and  _675
REMARK  256  A    between atoms: _674  and  _677
REMARK  257  A    between atoms: _677  and  _678
REMARK  258  A    between atoms: _678  and  _679
REMARK  259  A    between atoms: _682  and  _684
REMARK  260  A    between atoms: _684  and  _685
REMARK  261  A    between atoms: _684  and  _687
REMARK  262  A    between atoms: _687  and  _688
REMARK  263  A    between atoms: _688  and  _689
REMARK  264  A    between atoms: _689  and  _690
REMARK  265  A    between atoms: _690  and  _691
REMARK  266  A    between atoms: _695  and  _697
REMARK  267  A    between atoms: _697  and  _698
REMARK  268  A    between atoms: _700  and  _702
REMARK  269  A    between atoms: _702  and  _703
REMARK  270  A    between atoms: _702  and  _705
REMARK  271  A    between atoms: _705  and  _706
REMARK  272  A    between atoms: _711  and  _713
REMARK  273  A    between atoms: _713  and  _714
REMARK  274  A    between atoms: _713  and  _716
REMARK  275  A    between atoms: _716  and  _717
REMARK  276  A    between atoms: _717  and  _718
REMARK  277  A    between atoms: _718  and  _719
REMARK  278  A    between atoms: _728  and  _730
REMARK  279  A    between atoms: _730  and  _731
REMARK  280  A    between atoms: _730  and  _733
REMARK  281  A    between atoms: _733  and  _734
REMARK  282  A    between atoms: _737  and  _739
REMARK  283  A    between atoms: _739  and  _740
REMARK  284  A    between atoms: _739  and  _742
REMARK  285  A    between atoms: _745  and  _747
REMARK  286  A    between atoms: _747  and  _748
REMARK  287  A    between atoms: _747  and  _750
REMARK  288  A    between atoms: _750  and  _751
REMARK  289  A    between atoms: _751  and  _752
REMARK  290  A    between atoms: _758  and  _759
REMARK  291  A    between atoms: _764  and  _766
REMARK  292  A    between atoms: _766  and  _767
REMARK  293  A    between atoms: _766  and  _769
REMARK  294  A    between atoms: _769  and  _770
REMARK  295  A    between atoms: _773  and  _775
REMARK  296  A    between atoms: _775  and  _776
REMARK  297  A    between atoms: _775  and  _778
REMARK  298  A    between atoms: _778  and  _779
REMARK  299  A    between atoms: _782  and  _784
REMARK  300  A    between atoms: _784  and  _785
REMARK  301  A    between atoms: _784  and  _787
REMARK  302  A    between atoms: _787  and  _788
REMARK  303  A    between atoms: _790  and  _792
REMARK  304  A    between atoms: _792  and  _793
REMARK  305  A    between atoms: _792  and  _795
REMARK  306  A    between atoms: _795  and  _796
REMARK  307  A    between atoms: _796  and  _797
REMARK  308  A    between atoms: _797  and  _798
REMARK  309  A    between atoms: _807  and  _809
REMARK  310  A    between atoms: _809  and  _810
REMARK                            x       y       z     vdW  Elec       q    Type
REMARK                         _______ _______ _______ _____ _____    ______ ____
ROOT
ATOM      1  O   HOH     1     -20.175 -23.397 -22.802  0.00  0.00    +0.000 OA
ENDROOT
TORSDOF 0
REMARK  Name = ../refined-set-2016/3rt4/3rt4_pocket.pdb
REMARK  310 active torsions:
REMARK  status: ('A' for Active; 'I' for Inactive)
REMARK    1  A    between atoms: _1  and  _3
REMARK    2  A    between atoms: _3  and  _4
REMARK    3  A    between atoms: _3  and  _6
REMARK    4  A    between atoms: _6  and  _7
REMARK    5  A    between atoms: _7  and  _8
REMARK    6  A    between atoms: _8  and  _9
REMARK    7  A    between atoms: _18  and  _20
REMARK    8  A    between atoms: _20  and  _21
REMARK    9  A    between atoms: _20  and  _23
REMARK   10  A    between atoms: _26  and  _28
REMARK   11  A    between atoms: _28  and  _29
REMARK   12  A    between atoms: _28  and  _31
REMARK   13  A    between atoms: _31  and  _32
REMARK   14  A    between atoms: _32  and  _33
REMARK   15  A    between atoms: _33  and  _34
REMARK   16  A    between atoms: _43  and  _45
REMARK   17  A    between atoms: _45  and  _46
REMARK   18  A    between atoms: _45  and  _48
REMARK   19  A    between atoms: _48  and  _49
REMARK   20  A    between atoms: _51  and  _53
REMARK   21  A    between atoms: _53  and  _54
REMARK   22  A    between atoms: _53  and  _56
REMARK   23  A    between atoms: _56  and  _57
REMARK   24  A    between atoms: _62  and  _64
REMARK   25  A    between atoms: _64  and  _65
REMARK   26  A    between atoms: _64  and  _67
REMARK   27  A    between atoms: _67  and  _68
REMARK   28  A    between atoms: _73  and  _74
REMARK   29  A    between atoms: _76  and  _78
REMARK   30  A    between atoms: _78  and  _79
REMARK   31  A    between atoms: _78  and  _81
REMARK   32  A    between atoms: _81  and  _82
REMARK   33  A    between atoms: _82  and  _83
REMARK   34  A    between atoms: _86  and  _88
REMARK   35  A    between atoms: _88  and  _89
REMARK   36  A    between atoms: _88  and  _91
REMARK   37  A    between atoms: _91  and  _92
REMARK   38  A    between atoms: _92  and  _93
REMARK   39  A    between atoms: _93  and  _94
REMARK   40  A    between atoms: _94  and  _95
REMARK   41  A    between atoms: _99  and  _101
REMARK   42  A    between atoms: _101  and  _102
REMARK   43  A    between atoms: _101  and  _104
REMARK   44  A    between atoms: _104  and  _105
REMARK   45  A    between atoms: _110  and  _111
REMARK   46  A    between atoms: _113  and  _115
REMARK   47  A    between atoms: _115  and  _116
REMARK   48  A    between atoms: _115  and  _118
REMARK   49  A    between atoms: _118  and  _119
REMARK   50  A    between atoms: _119  and  _120
REMARK   51  A    between atoms: _120  and  _121
REMARK   52  A    between atoms: _130  and  _132
REMARK   53  A    between atoms: _132  and  _133
REMARK   54  A    between atoms: _136  and  _138
REMARK   55  A    between atoms: _138  and  _139
REMARK   56  A    between atoms: _138  and  _141
REMARK   57  A    between atoms: _141  and  _142
REMARK   58  A    between atoms: _142  and  _258
REMARK   59  A    between atoms: _143  and  _145
REMARK   60  A    between atoms: _145  and  _146
REMARK   61  A    between atoms: _145  and  _148
REMARK   62  A    between atoms: _148  and  _149
REMARK   63  A    between atoms: _149  and  _150
REMARK   64  A    between atoms: _153  and  _155
REMARK   65  A    between atoms: _155  and  _156
REMARK   66  A    between atoms: _155  and  _158
REMARK   67  A    between atoms: _158  and  _159
REMARK   68  A    between atoms: _161  and  _163
REMARK   69  A    between atoms: _163  and  _164
REMARK   70  A    between atoms: _163  and  _166
REMARK   71  A    between atoms: _166  and  _167
REMARK   72  A    between atoms: _172  and  _173
REMARK   73  A    between atoms: _175  and  _177
REMARK   74  A    between atoms: _177  and  _178
REMARK   75  A    between atoms: _177  and  _180
REMARK   76  A    between atoms: _180  and  _181
REMARK   77  A    between atoms: _186  and  _188
REMARK   78  A    between atoms: _188  and  _189
REMARK   79  A    between atoms: _188  and  _191
REMARK   80  A    between atoms: _194  and  _196
REMARK   81  A    between atoms: _196  and  _197
REMARK   82  A    between atoms: _196  and  _199
REMARK   83  A    between atoms: _199  and  _200
REMARK   84  A    between atoms: _200  and  _201
REMARK   85  A    between atoms: _201  and  _202
REMARK   86  A    between atoms: _211  and  _213
REMARK   87  A    between atoms: _213  and  _214
REMARK   88  A    between atoms: _213  and  _216
REMARK   89  A    between atoms: _216  and  _217
REMARK   90  A    between atoms: _222  and  _224
REMARK   91  A    between atoms: _224  and  _225
REMARK   92  A    between atoms: _224  and  _227
REMARK   93  A    between atoms: _227  and  _228
REMARK   94  A    between atoms: _231  and  _233
REMARK   95  A    between atoms: _233  and  _234
REMARK   96  A    between atoms: _236  and  _238
REMARK   97  A    between atoms: _238  and  _239
REMARK   98  A    between atoms: _238  and  _241
REMARK   99  A    between atoms: _241  and  _242
REMARK  100  A    between atoms: _252  and  _254
REMARK  101  A    between atoms: _254  and  _255
REMARK  102  A    between atoms: _254  and  _257
REMARK  103  A    between atoms: _257  and  _258
REMARK  104  A    between atoms: _259  and  _261
REMARK  105  A    between atoms: _261  and  _262
REMARK  106  A    between atoms: _261  and  _264
REMARK  107  A    between atoms: _264  and  _265
REMARK  108  A    between atoms: _268  and  _270
REMARK  109  A    between atoms: _270  and  _271
REMARK  110  A    between atoms: _273  and  _275
REMARK  111  A    between atoms: _275  and  _276
REMARK  112  A    between atoms: _275  and  _278
REMARK  113  A    between atoms: _278  and  _279
REMARK  114  A    between atoms: _284  and  _285
REMARK  115  A    between atoms: _287  and  _289
REMARK  116  A    between atoms: _289  and  _290
REMARK  117  A    between atoms: _289  and  _292
REMARK  118  A    between atoms: _292  and  _293
REMARK  119  A    between atoms: _293  and  _294
REMARK  120  A    between atoms: _294  and  _295
REMARK  121  A    between atoms: _304  and  _306
REMARK  122  A    between atoms: _306  and  _307
REMARK  123  A    between atoms: _306  and  _309
REMARK  124  A    between atoms: _309  and  _310
REMARK  125  A    between atoms: _310  and  _311
REMARK  126  A    between atoms: _311  and  _312
REMARK  127  A    between atoms: _312  and  _313
REMARK  128  A    between atoms: _317  and  _319
REMARK  129  A    between atoms: _319  and  _320
REMARK  130  A    between atoms: _322  and  _324
REMARK  131  A    between atoms: _324  and  _325
REMARK  132  A    between atoms: _328  and  _330
REMARK  133  A    between atoms: _330  and  _331
REMARK  134  A    between atoms: _330  and  _333
REMARK  135  A    between atoms: _333  and  _334
REMARK  136  A    between atoms: _339  and  _341
REMARK  137  A    between atoms: _341  and  _342
REMARK  138  A    between atoms: _345  and  _347
REMARK  139  A    between atoms: _347  and  _348
REMARK  140  A    between atoms: _351  and  _352
REMARK  141  A    between atoms: _357  and  _359
REMARK  142  A    between atoms: _359  and  _360
REMARK  143  A    between atoms: _359  and  _362
REMARK  144  A    between atoms: _362  and  _363
REMARK  145  A    between atoms: _366  and  _368
REMARK  146  A    between atoms: _368  and  _369
REMARK  147  A    between atoms: _368  and  _371
REMARK  148  A    between atoms: _371  and  _372
REMARK  149  A    between atoms: _382  and  _384
REMARK  150  A    between atoms: _384  and  _385
REMARK  151  A    between atoms: _384  and  _387
REMARK  152  A    between atoms: _387  and  _388
REMARK  153  A    between atoms: _394  and  _395
REMARK  154  A    between atoms: _400  and  _402
REMARK  155  A    between atoms: _402  and  _403
REMARK  156  A    between atoms: _402  and  _405
REMARK  157  A    between atoms: _405  and  _406
REMARK  158  A    between atoms: _409  and  _411
REMARK  159  A    between atoms: _411  and  _412
REMARK  160  A    between atoms: _411  and  _414
REMARK  161  A    between atoms: _414  and  _415
REMARK  162  A    between atoms: _417  and  _419
REMARK  163  A    between atoms: _419  and  _420
REMARK  164  A    between atoms: _419  and  _422
REMARK  165  A    between atoms: _422  and  _423
REMARK  166  A    between atoms: _428  and  _430
REMARK  167  A    between atoms: _430  and  _431
REMARK  168  A    between atoms: _430  and  _433
REMARK  169  A    between atoms: _436  and  _438
REMARK  170  A    between atoms: _438  and  _439
REMARK  171  A    between atoms: _438  and  _441
REMARK  172  A    between atoms: _441  and  _442
REMARK  173  A    between atoms: _442  and  _443
REMARK  174  A    between atoms: _449  and  _450
REMARK  175  A    between atoms: _455  and  _457
REMARK  176  A    between atoms: _457  and  _458
REMARK  177  A    between atoms: _457  and  _460
REMARK  178  A    between atoms: _460  and  _461
REMARK  179  A    between atoms: _464  and  _466
REMARK  180  A    between atoms: _466  and  _467
REMARK  181  A    between atoms: _466  and  _469
REMARK  182  A    between atoms: _469  and  _470
REMARK  183  A    between atoms: _473  and  _475
REMARK  184  A    between atoms: _475  and  _476
REMARK  185  A    between atoms: _475  and  _478
REMARK  186  A    between atoms: _478  and  _479
REMARK  187  A    between atoms: _481  and  _483
REMARK  188  A    between atoms: _483  and  _484
REMARK  189  A    between atoms: _483  and  _486
REMARK  190  A    between atoms: _486  and  _487
REMARK  191  A    between atoms: _492  and  _493
REMARK  192  A    between atoms: _495  and  _497
REMARK  193  A    between atoms: _497  and  _498
REMARK  194  A    between atoms: _497  and  _500
REMARK  195  A    between atoms: _500  and  _501
REMARK  196  A    between atoms: _506  and  _508
REMARK  197  A    between atoms: _508  and  _509
REMARK  198  A    between atoms: _508  and  _511
REMARK  199  A    between atoms: _511  and  _512
REMARK  200  A    between atoms: _515  and  _517
REMARK  201  A    between atoms: _517  and  _518
REMARK  202  A    between atoms: _517  and  _520
REMARK  203  A    between atoms: _520  and  _521
REMARK  204  A    between atoms: _531  and  _533
REMARK  205  A    between atoms: _533  and  _534
REMARK  206  A    between atoms: _536  and  _538
REMARK  207  A    between atoms: _538  and  _539
REMARK  208  A    between atoms: _538  and  _541
REMARK  209  A    between atoms: _541  and  _542
REMARK  210  A    between atoms: _547  and  _548
REMARK  211  A    between atoms: _550  and  _552
REMARK  212  A    between atoms: _552  and  _553
REMARK  213  A    between atoms: _552  and  _555
REMARK  214  A    between atoms: _555  and  _556
REMARK  215  A    between atoms: _556  and  _557
REMARK  216  A    between atoms: _557  and  _558
REMARK  217  A    between atoms: _567  and  _569
REMARK  218  A    between atoms: _569  and  _570
REMARK  219  A    between atoms: _569  and  _572
REMARK  220  A    between atoms: _572  and  _573
REMARK  221  A    between atoms: _573  and  _574
REMARK  222  A    between atoms: _574  and  _575
REMARK  223  A    between atoms: _575  and  _576
REMARK  224  A    between atoms: _580  and  _582
REMARK  225  A    between atoms: _582  and  _583
REMARK  226  A    between atoms: _585  and  _587
REMARK  227  A    between atoms: _587  and  _588
REMARK  228  A    between atoms: _591  and  _593
REMARK  229  A    between atoms: _593  and  _594
REMARK  230  A    between atoms: _593  and  _596
REMARK  231  A    between atoms: _596  and  _597
REMARK  232  A    between atoms: _602  and  _604
REMARK  233  A    between atoms: _604  and  _605
REMARK  234  A    between atoms: _608  and  _610
REMARK  235  A    between atoms: _610  and  _611
REMARK  236  A    between atoms: _614  and  _615
REMARK  237  A    between atoms: _620  and  _622
REMARK  238  A    between atoms: _622  and  _623
REMARK  239  A    between atoms: _622  and  _625
REMARK  240  A    between atoms: _625  and  _626
REMARK  241  A    between atoms: _629  and  _631
REMARK  242  A    between atoms: _631  and  _632
REMARK  243  A    between atoms: _631  and  _634
REMARK  244  A    between atoms: _634  and  _635
REMARK  245  A    between atoms: _645  and  _647
REMARK  246  A    between atoms: _647  and  _648
REMARK  247  A    between atoms: _647  and  _650
REMARK  248  A    between atoms: _650  and  _651
REMARK  249  A    between atoms: _657  and  _658
REMARK  250  A    between atoms: _663  and  _665
REMARK  251  A    between atoms: _665  and  _666
REMARK  252  A    between atoms: _665  and  _668
REMARK  253  A    between atoms: _668  and  _669
REMARK  254  A    between atoms: _672  and  _674
REMARK  255  A    between atoms: _674  and  _675
REMARK  256  A    between atoms: _674  and  _677
REMARK  257  A    between atoms: _677  and  _678
REMARK  258  A    between atoms: _678  and  _679
REMARK  259  A    between atoms: _682  and  _684
REMARK  260  A    between atoms: _684  and  _685
REMARK  261  A    between atoms: _684  and  _687
REMARK  262  A    between atoms: _687  and  _688
REMARK  263  A    between atoms: _688  and  _689
REMARK  264  A    between atoms: _689  and  _690
REMARK  265  A    between atoms: _690  and  _691
REMARK  266  A    between atoms: _695  and  _697
REMARK  267  A    between atoms: _697  and  _698
REMARK  268  A    between atoms: _700  and  _702
REMARK  269  A    between atoms: _702  and  _703
REMARK  270  A    between atoms: _702  and  _705
REMARK  271  A    between atoms: _705  and  _706
REMARK  272  A    between atoms: _711  and  _713
REMARK  273  A    between atoms: _713  and  _714
REMARK  274  A    between atoms: _713  and  _716
REMARK  275  A    between atoms: _716  and  _717
REMARK  276  A    between atoms: _717  and  _718
REMARK  277  A    between atoms: _718  and  _719
REMARK  278  A    between atoms: _728  and  _730
REMARK  279  A    between atoms: _730  and  _731
REMARK  280  A    between atoms: _730  and  _733
REMARK  281  A    between atoms: _733  and  _734
REMARK  282  A    between atoms: _737  and  _739
REMARK  283  A    between atoms: _739  and  _740
REMARK  284  A    between atoms: _739  and  _742
REMARK  285  A    between atoms: _745  and  _747
REMARK  286  A    between atoms: _747  and  _748
REMARK  287  A    between atoms: _747  and  _750
REMARK  288  A    between atoms: _750  and  _751
REMARK  289  A    between atoms: _751  and  _752
REMARK  290  A    between atoms: _758  and  _759
REMARK  291  A    between atoms: _764  and  _766
REMARK  292  A    between atoms: _766  and  _767
REMARK  293  A    between atoms: _766  and  _769
REMARK  294  A    between atoms: _769  and  _770
REMARK  295  A    between atoms: _773  and  _775
REMARK  296  A    between atoms: _775  and  _776
REMARK  297  A    between atoms: _775  and  _778
REMARK  298  A    between atoms: _778  and  _779
REMARK  299  A    between atoms: _782  and  _784
REMARK  300  A    between atoms: _784  and  _785
REMARK  301  A    between atoms: _784  and  _787
REMARK  302  A    between atoms: _787  and  _788
REMARK  303  A    between atoms: _790  and  _792
REMARK  304  A    between atoms: _792  and  _793
REMARK  305  A    between atoms: _792  and  _795
REMARK  306  A    between atoms: _795  and  _796
REMARK  307  A    between atoms: _796  and  _797
REMARK  308  A    between atoms: _797  and  _798
REMARK  309  A    between atoms: _807  and  _809
REMARK  310  A    between atoms: _809  and  _810
REMARK                            x       y       z     vdW  Elec       q    Type
REMARK                         _______ _______ _______ _____ _____    ______ ____
ROOT
ATOM      1  O   HOH     1     -21.530 -16.021 -17.064  0.00  0.00    +0.000 OA
ENDROOT
TORSDOF 0
REMARK  Name = ../refined-set-2016/3rt4/3rt4_pocket.pdb
REMARK  310 active torsions:
REMARK  status: ('A' for Active; 'I' for Inactive)
REMARK    1  A    between atoms: _1  and  _3
REMARK    2  A    between atoms: _3  and  _4
REMARK    3  A    between atoms: _3  and  _6
REMARK    4  A    between atoms: _6  and  _7
REMARK    5  A    between atoms: _7  and  _8
REMARK    6  A    between atoms: _8  and  _9
REMARK    7  A    between atoms: _18  and  _20
REMARK    8  A    between atoms: _20  and  _21
REMARK    9  A    between atoms: _20  and  _23
REMARK   10  A    between atoms: _26  and  _28
REMARK   11  A    between atoms: _28  and  _29
REMARK   12  A    between atoms: _28  and  _31
REMARK   13  A    between atoms: _31  and  _32
REMARK   14  A    between atoms: _32  and  _33
REMARK   15  A    between atoms: _33  and  _34
REMARK   16  A    between atoms: _43  and  _45
REMARK   17  A    between atoms: _45  and  _46
REMARK   18  A    between atoms: _45  and  _48
REMARK   19  A    between atoms: _48  and  _49
REMARK   20  A    between atoms: _51  and  _53
REMARK   21  A    between atoms: _53  and  _54
REMARK   22  A    between atoms: _53  and  _56
REMARK   23  A    between atoms: _56  and  _57
REMARK   24  A    between atoms: _62  and  _64
REMARK   25  A    between atoms: _64  and  _65
REMARK   26  A    between atoms: _64  and  _67
REMARK   27  A    between atoms: _67  and  _68
REMARK   28  A    between atoms: _73  and  _74
REMARK   29  A    between atoms: _76  and  _78
REMARK   30  A    between atoms: _78  and  _79
REMARK   31  A    between atoms: _78  and  _81
REMARK   32  A    between atoms: _81  and  _82
REMARK   33  A    between atoms: _82  and  _83
REMARK   34  A    between atoms: _86  and  _88
REMARK   35  A    between atoms: _88  and  _89
REMARK   36  A    between atoms: _88  and  _91
REMARK   37  A    between atoms: _91  and  _92
REMARK   38  A    between atoms: _92  and  _93
REMARK   39  A    between atoms: _93  and  _94
REMARK   40  A    between atoms: _94  and  _95
REMARK   41  A    between atoms: _99  and  _101
REMARK   42  A    between atoms: _101  and  _102
REMARK   43  A    between atoms: _101  and  _104
REMARK   44  A    between atoms: _104  and  _105
REMARK   45  A    between atoms: _110  and  _111
REMARK   46  A    between atoms: _113  and  _115
REMARK   47  A    between atoms: _115  and  _116
REMARK   48  A    between atoms: _115  and  _118
REMARK   49  A    between atoms: _118  and  _119
REMARK   50  A    between atoms: _119  and  _120
REMARK   51  A    between atoms: _120  and  _121
REMARK   52  A    between atoms: _130  and  _132
REMARK   53  A    between atoms: _132  and  _133
REMARK   54  A    between atoms: _136  and  _138
REMARK   55  A    between atoms: _138  and  _139
REMARK   56  A    between atoms: _138  and  _141
REMARK   57  A    between atoms: _141  and  _142
REMARK   58  A    between atoms: _142  and  _258
REMARK   59  A    between atoms: _143  and  _145
REMARK   60  A    between atoms: _145  and  _146
REMARK   61  A    between atoms: _145  and  _148
REMARK   62  A    between atoms: _148  and  _149
REMARK   63  A    between atoms: _149  and  _150
REMARK   64  A    between atoms: _153  and  _155
REMARK   65  A    between atoms: _155  and  _156
REMARK   66  A    between atoms: _155  and  _158
REMARK   67  A    between atoms: _158  and  _159
REMARK   68  A    between atoms: _161  and  _163
REMARK   69  A    between atoms: _163  and  _164
REMARK   70  A    between atoms: _163  and  _166
REMARK   71  A    between atoms: _166  and  _167
REMARK   72  A    between atoms: _172  and  _173
REMARK   73  A    between atoms: _175  and  _177
REMARK   74  A    between atoms: _177  and  _178
REMARK   75  A    between atoms: _177  and  _180
REMARK   76  A    between atoms: _180  and  _181
REMARK   77  A    between atoms: _186  and  _188
REMARK   78  A    between atoms: _188  and  _189
REMARK   79  A    between atoms: _188  and  _191
REMARK   80  A    between atoms: _194  and  _196
REMARK   81  A    between atoms: _196  and  _197
REMARK   82  A    between atoms: _196  and  _199
REMARK   83  A    between atoms: _199  and  _200
REMARK   84  A    between atoms: _200  and  _201
REMARK   85  A    between atoms: _201  and  _202
REMARK   86  A    between atoms: _211  and  _213
REMARK   87  A    between atoms: _213  and  _214
REMARK   88  A    between atoms: _213  and  _216
REMARK   89  A    between atoms: _216  and  _217
REMARK   90  A    between atoms: _222  and  _224
REMARK   91  A    between atoms: _224  and  _225
REMARK   92  A    between atoms: _224  and  _227
REMARK   93  A    between atoms: _227  and  _228
REMARK   94  A    between atoms: _231  and  _233
REMARK   95  A    between atoms: _233  and  _234
REMARK   96  A    between atoms: _236  and  _238
REMARK   97  A    between atoms: _238  and  _239
REMARK   98  A    between atoms: _238  and  _241
REMARK   99  A    between atoms: _241  and  _242
REMARK  100  A    between atoms: _252  and  _254
REMARK  101  A    between atoms: _254  and  _255
REMARK  102  A    between atoms: _254  and  _257
REMARK  103  A    between atoms: _257  and  _258
REMARK  104  A    between atoms: _259  and  _261
REMARK  105  A    between atoms: _261  and  _262
REMARK  106  A    between atoms: _261  and  _264
REMARK  107  A    between atoms: _264  and  _265
REMARK  108  A    between atoms: _268  and  _270
REMARK  109  A    between atoms: _270  and  _271
REMARK  110  A    between atoms: _273  and  _275
REMARK  111  A    between atoms: _275  and  _276
REMARK  112  A    between atoms: _275  and  _278
REMARK  113  A    between atoms: _278  and  _279
REMARK  114  A    between atoms: _284  and  _285
REMARK  115  A    between atoms: _287  and  _289
REMARK  116  A    between atoms: _289  and  _290
REMARK  117  A    between atoms: _289  and  _292
REMARK  118  A    between atoms: _292  and  _293
REMARK  119  A    between atoms: _293  and  _294
REMARK  120  A    between atoms: _294  and  _295
REMARK  121  A    between atoms: _304  and  _306
REMARK  122  A    between atoms: _306  and  _307
REMARK  123  A    between atoms: _306  and  _309
REMARK  124  A    between atoms: _309  and  _310
REMARK  125  A    between atoms: _310  and  _311
REMARK  126  A    between atoms: _311  and  _312
REMARK  127  A    between atoms: _312  and  _313
REMARK  128  A    between atoms: _317  and  _319
REMARK  129  A    between atoms: _319  and  _320
REMARK  130  A    between atoms: _322  and  _324
REMARK  131  A    between atoms: _324  and  _325
REMARK  132  A    between atoms: _328  and  _330
REMARK  133  A    between atoms: _330  and  _331
REMARK  134  A    between atoms: _330  and  _333
REMARK  135  A    between atoms: _333  and  _334
REMARK  136  A    between atoms: _339  and  _341
REMARK  137  A    between atoms: _341  and  _342
REMARK  138  A    between atoms: _345  and  _347
REMARK  139  A    between atoms: _347  and  _348
REMARK  140  A    between atoms: _351  and  _352
REMARK  141  A    between atoms: _357  and  _359
REMARK  142  A    between atoms: _359  and  _360
REMARK  143  A    between atoms: _359  and  _362
REMARK  144  A    between atoms: _362  and  _363
REMARK  145  A    between atoms: _366  and  _368
REMARK  146  A    between atoms: _368  and  _369
REMARK  147  A    between atoms: _368  and  _371
REMARK  148  A    between atoms: _371  and  _372
REMARK  149  A    between atoms: _382  and  _384
REMARK  150  A    between atoms: _384  and  _385
REMARK  151  A    between atoms: _384  and  _387
REMARK  152  A    between atoms: _387  and  _388
REMARK  153  A    between atoms: _394  and  _395
REMARK  154  A    between atoms: _400  and  _402
REMARK  155  A    between atoms: _402  and  _403
REMARK  156  A    between atoms: _402  and  _405
REMARK  157  A    between atoms: _405  and  _406
REMARK  158  A    between atoms: _409  and  _411
REMARK  159  A    between atoms: _411  and  _412
REMARK  160  A    between atoms: _411  and  _414
REMARK  161  A    between atoms: _414  and  _415
REMARK  162  A    between atoms: _417  and  _419
REMARK  163  A    between atoms: _419  and  _420
REMARK  164  A    between atoms: _419  and  _422
REMARK  165  A    between atoms: _422  and  _423
REMARK  166  A    between atoms: _428  and  _430
REMARK  167  A    between atoms: _430  and  _431
REMARK  168  A    between atoms: _430  and  _433
REMARK  169  A    between atoms: _436  and  _438
REMARK  170  A    between atoms: _438  and  _439
REMARK  171  A    between atoms: _438  and  _441
REMARK  172  A    between atoms: _441  and  _442
REMARK  173  A    between atoms: _442  and  _443
REMARK  174  A    between atoms: _449  and  _450
REMARK  175  A    between atoms: _455  and  _457
REMARK  176  A    between atoms: _457  and  _458
REMARK  177  A    between atoms: _457  and  _460
REMARK  178  A    between atoms: _460  and  _461
REMARK  179  A    between atoms: _464  and  _466
REMARK  180  A    between atoms: _466  and  _467
REMARK  181  A    between atoms: _466  and  _469
REMARK  182  A    between atoms: _469  and  _470
REMARK  183  A    between atoms: _473  and  _475
REMARK  184  A    between atoms: _475  and  _476
REMARK  185  A    between atoms: _475  and  _478
REMARK  186  A    between atoms: _478  and  _479
REMARK  187  A    between atoms: _481  and  _483
REMARK  188  A    between atoms: _483  and  _484
REMARK  189  A    between atoms: _483  and  _486
REMARK  190  A    between atoms: _486  and  _487
REMARK  191  A    between atoms: _492  and  _493
REMARK  192  A    between atoms: _495  and  _497
REMARK  193  A    between atoms: _497  and  _498
REMARK  194  A    between atoms: _497  and  _500
REMARK  195  A    between atoms: _500  and  _501
REMARK  196  A    between atoms: _506  and  _508
REMARK  197  A    between atoms: _508  and  _509
REMARK  198  A    between atoms: _508  and  _511
REMARK  199  A    between atoms: _511  and  _512
REMARK  200  A    between atoms: _515  and  _517
REMARK  201  A    between atoms: _517  and  _518
REMARK  202  A    between atoms: _517  and  _520
REMARK  203  A    between atoms: _520  and  _521
REMARK  204  A    between atoms: _531  and  _533
REMARK  205  A    between atoms: _533  and  _534
REMARK  206  A    between atoms: _536  and  _538
REMARK  207  A    between atoms: _538  and  _539
REMARK  208  A    between atoms: _538  and  _541
REMARK  209  A    between atoms: _541  and  _542
REMARK  210  A    between atoms: _547  and  _548
REMARK  211  A    between atoms: _550  and  _552
REMARK  212  A    between atoms: _552  and  _553
REMARK  213  A    between atoms: _552  and  _555
REMARK  214  A    between atoms: _555  and  _556
REMARK  215  A    between atoms: _556  and  _557
REMARK  216  A    between atoms: _557  and  _558
REMARK  217  A    between atoms: _567  and  _569
REMARK  218  A    between atoms: _569  and  _570
REMARK  219  A    between atoms: _569  and  _572
REMARK  220  A    between atoms: _572  and  _573
REMARK  221  A    between atoms: _573  and  _574
REMARK  222  A    between atoms: _574  and  _575
REMARK  223  A    between atoms: _575  and  _576
REMARK  224  A    between atoms: _580  and  _582
REMARK  225  A    between atoms: _582  and  _583
REMARK  226  A    between atoms: _585  and  _587
REMARK  227  A    between atoms: _587  and  _588
REMARK  228  A    between atoms: _591  and  _593
REMARK  229  A    between atoms: _593  and  _594
REMARK  230  A    between atoms: _593  and  _596
REMARK  231  A    between atoms: _596  and  _597
REMARK  232  A    between atoms: _602  and  _604
REMARK  233  A    between atoms: _604  and  _605
REMARK  234  A    between atoms: _608  and  _610
REMARK  235  A    between atoms: _610  and  _611
REMARK  236  A    between atoms: _614  and  _615
REMARK  237  A    between atoms: _620  and  _622
REMARK  238  A    between atoms: _622  and  _623
REMARK  239  A    between atoms: _622  and  _625
REMARK  240  A    between atoms: _625  and  _626
REMARK  241  A    between atoms: _629  and  _631
REMARK  242  A    between atoms: _631  and  _632
REMARK  243  A    between atoms: _631  and  _634
REMARK  244  A    between atoms: _634  and  _635
REMARK  245  A    between atoms: _645  and  _647
REMARK  246  A    between atoms: _647  and  _648
REMARK  247  A    between atoms: _647  and  _650
REMARK  248  A    between atoms: _650  and  _651
REMARK  249  A    between atoms: _657  and  _658
REMARK  250  A    between atoms: _663  and  _665
REMARK  251  A    between atoms: _665  and  _666
REMARK  252  A    between atoms: _665  and  _668
REMARK  253  A    between atoms: _668  and  _669
REMARK  254  A    between atoms: _672  and  _674
REMARK  255  A    between atoms: _674  and  _675
REMARK  256  A    between atoms: _674  and  _677
REMARK  257  A    between atoms: _677  and  _678
REMARK  258  A    between atoms: _678  and  _679
REMARK  259  A    between atoms: _682  and  _684
REMARK  260  A    between atoms: _684  and  _685
REMARK  261  A    between atoms: _684  and  _687
REMARK  262  A    between atoms: _687  and  _688
REMARK  263  A    between atoms: _688  and  _689
REMARK  264  A    between atoms: _689  and  _690
REMARK  265  A    between atoms: _690  and  _691
REMARK  266  A    between atoms: _695  and  _697
REMARK  267  A    between atoms: _697  and  _698
REMARK  268  A    between atoms: _700  and  _702
REMARK  269  A    between atoms: _702  and  _703
REMARK  270  A    between atoms: _702  and  _705
REMARK  271  A    between atoms: _705  and  _706
REMARK  272  A    between atoms: _711  and  _713
REMARK  273  A    between atoms: _713  and  _714
REMARK  274  A    between atoms: _713  and  _716
REMARK  275  A    between atoms: _716  and  _717
REMARK  276  A    between atoms: _717  and  _718
REMARK  277  A    between atoms: _718  and  _719
REMARK  278  A    between atoms: _728  and  _730
REMARK  279  A    between atoms: _730  and  _731
REMARK  280  A    between atoms: _730  and  _733
REMARK  281  A    between atoms: _733  and  _734
REMARK  282  A    between atoms: _737  and  _739
REMARK  283  A    between atoms: _739  and  _740
REMARK  284  A    between atoms: _739  and  _742
REMARK  285  A    between atoms: _745  and  _747
REMARK  286  A    between atoms: _747  and  _748
REMARK  287  A    between atoms: _747  and  _750
REMARK  288  A    between atoms: _750  and  _751
REMARK  289  A    between atoms: _751  and  _752
REMARK  290  A    between atoms: _758  and  _759
REMARK  291  A    between atoms: _764  and  _766
REMARK  292  A    between atoms: _766  and  _767
REMARK  293  A    between atoms: _766  and  _769
REMARK  294  A    between atoms: _769  and  _770
REMARK  295  A    between atoms: _773  and  _775
REMARK  296  A    between atoms: _775  and  _776
REMARK  297  A    between atoms: _775  and  _778
REMARK  298  A    between atoms: _778  and  _779
REMARK  299  A    between atoms: _782  and  _784
REMARK  300  A    between atoms: _784  and  _785
REMARK  301  A    between atoms: _784  and  _787
REMARK  302  A    between atoms: _787  and  _788
REMARK  303  A    between atoms: _790  and  _792
REMARK  304  A    between atoms: _792  and  _793
REMARK  305  A    between atoms: _792  and  _795
REMARK  306  A    between atoms: _795  and  _796
REMARK  307  A    between atoms: _796  and  _797
REMARK  308  A    between atoms: _797  and  _798
REMARK  309  A    between atoms: _807  and  _809
REMARK  310  A    between atoms: _809  and  _810
REMARK                            x       y       z     vdW  Elec       q    Type
REMARK                         _______ _______ _______ _____ _____    ______ ____
ROOT
ATOM      1  O   HOH     1     -32.849 -24.527 -31.331  0.00  0.00    +0.000 OA
ENDROOT
TORSDOF 0
REMARK  Name = ../refined-set-2016/3rt4/3rt4_pocket.pdb
REMARK  310 active torsions:
REMARK  status: ('A' for Active; 'I' for Inactive)
REMARK    1  A    between atoms: _1  and  _3
REMARK    2  A    between atoms: _3  and  _4
REMARK    3  A    between atoms: _3  and  _6
REMARK    4  A    between atoms: _6  and  _7
REMARK    5  A    between atoms: _7  and  _8
REMARK    6  A    between atoms: _8  and  _9
REMARK    7  A    between atoms: _18  and  _20
REMARK    8  A    between atoms: _20  and  _21
REMARK    9  A    between atoms: _20  and  _23
REMARK   10  A    between atoms: _26  and  _28
REMARK   11  A    between atoms: _28  and  _29
REMARK   12  A    between atoms: _28  and  _31
REMARK   13  A    between atoms: _31  and  _32
REMARK   14  A    between atoms: _32  and  _33
REMARK   15  A    between atoms: _33  and  _34
REMARK   16  A    between atoms: _43  and  _45
REMARK   17  A    between atoms: _45  and  _46
REMARK   18  A    between atoms: _45  and  _48
REMARK   19  A    between atoms: _48  and  _49
REMARK   20  A    between atoms: _51  and  _53
REMARK   21  A    between atoms: _53  and  _54
REMARK   22  A    between atoms: _53  and  _56
REMARK   23  A    between atoms: _56  and  _57
REMARK   24  A    between atoms: _62  and  _64
REMARK   25  A    between atoms: _64  and  _65
REMARK   26  A    between atoms: _64  and  _67
REMARK   27  A    between atoms: _67  and  _68
REMARK   28  A    between atoms: _73  and  _74
REMARK   29  A    between atoms: _76  and  _78
REMARK   30  A    between atoms: _78  and  _79
REMARK   31  A    between atoms: _78  and  _81
REMARK   32  A    between atoms: _81  and  _82
REMARK   33  A    between atoms: _82  and  _83
REMARK   34  A    between atoms: _86  and  _88
REMARK   35  A    between atoms: _88  and  _89
REMARK   36  A    between atoms: _88  and  _91
REMARK   37  A    between atoms: _91  and  _92
REMARK   38  A    between atoms: _92  and  _93
REMARK   39  A    between atoms: _93  and  _94
REMARK   40  A    between atoms: _94  and  _95
REMARK   41  A    between atoms: _99  and  _101
REMARK   42  A    between atoms: _101  and  _102
REMARK   43  A    between atoms: _101  and  _104
REMARK   44  A    between atoms: _104  and  _105
REMARK   45  A    between atoms: _110  and  _111
REMARK   46  A    between atoms: _113  and  _115
REMARK   47  A    between atoms: _115  and  _116
REMARK   48  A    between atoms: _115  and  _118
REMARK   49  A    between atoms: _118  and  _119
REMARK   50  A    between atoms: _119  and  _120
REMARK   51  A    between atoms: _120  and  _121
REMARK   52  A    between atoms: _130  and  _132
REMARK   53  A    between atoms: _132  and  _133
REMARK   54  A    between atoms: _136  and  _138
REMARK   55  A    between atoms: _138  and  _139
REMARK   56  A    between atoms: _138  and  _141
REMARK   57  A    between atoms: _141  and  _142
REMARK   58  A    between atoms: _142  and  _258
REMARK   59  A    between atoms: _143  and  _145
REMARK   60  A    between atoms: _145  and  _146
REMARK   61  A    between atoms: _145  and  _148
REMARK   62  A    between atoms: _148  and  _149
REMARK   63  A    between atoms: _149  and  _150
REMARK   64  A    between atoms: _153  and  _155
REMARK   65  A    between atoms: _155  and  _156
REMARK   66  A    between atoms: _155  and  _158
REMARK   67  A    between atoms: _158  and  _159
REMARK   68  A    between atoms: _161  and  _163
REMARK   69  A    between atoms: _163  and  _164
REMARK   70  A    between atoms: _163  and  _166
REMARK   71  A    between atoms: _166  and  _167
REMARK   72  A    between atoms: _172  and  _173
REMARK   73  A    between atoms: _175  and  _177
REMARK   74  A    between atoms: _177  and  _178
REMARK   75  A    between atoms: _177  and  _180
REMARK   76  A    between atoms: _180  and  _181
REMARK   77  A    between atoms: _186  and  _188
REMARK   78  A    between atoms: _188  and  _189
REMARK   79  A    between atoms: _188  and  _191
REMARK   80  A    between atoms: _194  and  _196
REMARK   81  A    between atoms: _196  and  _197
REMARK   82  A    between atoms: _196  and  _199
REMARK   83  A    between atoms: _199  and  _200
REMARK   84  A    between atoms: _200  and  _201
REMARK   85  A    between atoms: _201  and  _202
REMARK   86  A    between atoms: _211  and  _213
REMARK   87  A    between atoms: _213  and  _214
REMARK   88  A    between atoms: _213  and  _216
REMARK   89  A    between atoms: _216  and  _217
REMARK   90  A    between atoms: _222  and  _224
REMARK   91  A    between atoms: _224  and  _225
REMARK   92  A    between atoms: _224  and  _227
REMARK   93  A    between atoms: _227  and  _228
REMARK   94  A    between atoms: _231  and  _233
REMARK   95  A    between atoms: _233  and  _234
REMARK   96  A    between atoms: _236  and  _238
REMARK   97  A    between atoms: _238  and  _239
REMARK   98  A    between atoms: _238  and  _241
REMARK   99  A    between atoms: _241  and  _242
REMARK  100  A    between atoms: _252  and  _254
REMARK  101  A    between atoms: _254  and  _255
REMARK  102  A    between atoms: _254  and  _257
REMARK  103  A    between atoms: _257  and  _258
REMARK  104  A    between atoms: _259  and  _261
REMARK  105  A    between atoms: _261  and  _262
REMARK  106  A    between atoms: _261  and  _264
REMARK  107  A    between atoms: _264  and  _265
REMARK  108  A    between atoms: _268  and  _270
REMARK  109  A    between atoms: _270  and  _271
REMARK  110  A    between atoms: _273  and  _275
REMARK  111  A    between atoms: _275  and  _276
REMARK  112  A    between atoms: _275  and  _278
REMARK  113  A    between atoms: _278  and  _279
REMARK  114  A    between atoms: _284  and  _285
REMARK  115  A    between atoms: _287  and  _289
REMARK  116  A    between atoms: _289  and  _290
REMARK  117  A    between atoms: _289  and  _292
REMARK  118  A    between atoms: _292  and  _293
REMARK  119  A    between atoms: _293  and  _294
REMARK  120  A    between atoms: _294  and  _295
REMARK  121  A    between atoms: _304  and  _306
REMARK  122  A    between atoms: _306  and  _307
REMARK  123  A    between atoms: _306  and  _309
REMARK  124  A    between atoms: _309  and  _310
REMARK  125  A    between atoms: _310  and  _311
REMARK  126  A    between atoms: _311  and  _312
REMARK  127  A    between atoms: _312  and  _313
REMARK  128  A    between atoms: _317  and  _319
REMARK  129  A    between atoms: _319  and  _320
REMARK  130  A    between atoms: _322  and  _324
REMARK  131  A    between atoms: _324  and  _325
REMARK  132  A    between atoms: _328  and  _330
REMARK  133  A    between atoms: _330  and  _331
REMARK  134  A    between atoms: _330  and  _333
REMARK  135  A    between atoms: _333  and  _334
REMARK  136  A    between atoms: _339  and  _341
REMARK  137  A    between atoms: _341  and  _342
REMARK  138  A    between atoms: _345  and  _347
REMARK  139  A    between atoms: _347  and  _348
REMARK  140  A    between atoms: _351  and  _352
REMARK  141  A    between atoms: _357  and  _359
REMARK  142  A    between atoms: _359  and  _360
REMARK  143  A    between atoms: _359  and  _362
REMARK  144  A    between atoms: _362  and  _363
REMARK  145  A    between atoms: _366  and  _368
REMARK  146  A    between atoms: _368  and  _369
REMARK  147  A    between atoms: _368  and  _371
REMARK  148  A    between atoms: _371  and  _372
REMARK  149  A    between atoms: _382  and  _384
REMARK  150  A    between atoms: _384  and  _385
REMARK  151  A    between atoms: _384  and  _387
REMARK  152  A    between atoms: _387  and  _388
REMARK  153  A    between atoms: _394  and  _395
REMARK  154  A    between atoms: _400  and  _402
REMARK  155  A    between atoms: _402  and  _403
REMARK  156  A    between atoms: _402  and  _405
REMARK  157  A    between atoms: _405  and  _406
REMARK  158  A    between atoms: _409  and  _411
REMARK  159  A    between atoms: _411  and  _412
REMARK  160  A    between atoms: _411  and  _414
REMARK  161  A    between atoms: _414  and  _415
REMARK  162  A    between atoms: _417  and  _419
REMARK  163  A    between atoms: _419  and  _420
REMARK  164  A    between atoms: _419  and  _422
REMARK  165  A    between atoms: _422  and  _423
REMARK  166  A    between atoms: _428  and  _430
REMARK  167  A    between atoms: _430  and  _431
REMARK  168  A    between atoms: _430  and  _433
REMARK  169  A    between atoms: _436  and  _438
REMARK  170  A    between atoms: _438  and  _439
REMARK  171  A    between atoms: _438  and  _441
REMARK  172  A    between atoms: _441  and  _442
REMARK  173  A    between atoms: _442  and  _443
REMARK  174  A    between atoms: _449  and  _450
REMARK  175  A    between atoms: _455  and  _457
REMARK  176  A    between atoms: _457  and  _458
REMARK  177  A    between atoms: _457  and  _460
REMARK  178  A    between atoms: _460  and  _461
REMARK  179  A    between atoms: _464  and  _466
REMARK  180  A    between atoms: _466  and  _467
REMARK  181  A    between atoms: _466  and  _469
REMARK  182  A    between atoms: _469  and  _470
REMARK  183  A    between atoms: _473  and  _475
REMARK  184  A    between atoms: _475  and  _476
REMARK  185  A    between atoms: _475  and  _478
REMARK  186  A    between atoms: _478  and  _479
REMARK  187  A    between atoms: _481  and  _483
REMARK  188  A    between atoms: _483  and  _484
REMARK  189  A    between atoms: _483  and  _486
REMARK  190  A    between atoms: _486  and  _487
REMARK  191  A    between atoms: _492  and  _493
REMARK  192  A    between atoms: _495  and  _497
REMARK  193  A    between atoms: _497  and  _498
REMARK  194  A    between atoms: _497  and  _500
REMARK  195  A    between atoms: _500  and  _501
REMARK  196  A    between atoms: _506  and  _508
REMARK  197  A    between atoms: _508  and  _509
REMARK  198  A    between atoms: _508  and  _511
REMARK  199  A    between atoms: _511  and  _512
REMARK  200  A    between atoms: _515  and  _517
REMARK  201  A    between atoms: _517  and  _518
REMARK  202  A    between atoms: _517  and  _520
REMARK  203  A    between atoms: _520  and  _521
REMARK  204  A    between atoms: _531  and  _533
REMARK  205  A    between atoms: _533  and  _534
REMARK  206  A    between atoms: _536  and  _538
REMARK  207  A    between atoms: _538  and  _539
REMARK  208  A    between atoms: _538  and  _541
REMARK  209  A    between atoms: _541  and  _542
REMARK  210  A    between atoms: _547  and  _548
REMARK  211  A    between atoms: _550  and  _552
REMARK  212  A    between atoms: _552  and  _553
REMARK  213  A    between atoms: _552  and  _555
REMARK  214  A    between atoms: _555  and  _556
REMARK  215  A    between atoms: _556  and  _557
REMARK  216  A    between atoms: _557  and  _558
REMARK  217  A    between atoms: _567  and  _569
REMARK  218  A    between atoms: _569  and  _570
REMARK  219  A    between atoms: _569  and  _572
REMARK  220  A    between atoms: _572  and  _573
REMARK  221  A    between atoms: _573  and  _574
REMARK  222  A    between atoms: _574  and  _575
REMARK  223  A    between atoms: _575  and  _576
REMARK  224  A    between atoms: _580  and  _582
REMARK  225  A    between atoms: _582  and  _583
REMARK  226  A    between atoms: _585  and  _587
REMARK  227  A    between atoms: _587  and  _588
REMARK  228  A    between atoms: _591  and  _593
REMARK  229  A    between atoms: _593  and  _594
REMARK  230  A    between atoms: _593  and  _596
REMARK  231  A    between atoms: _596  and  _597
REMARK  232  A    between atoms: _602  and  _604
REMARK  233  A    between atoms: _604  and  _605
REMARK  234  A    between atoms: _608  and  _610
REMARK  235  A    between atoms: _610  and  _611
REMARK  236  A    between atoms: _614  and  _615
REMARK  237  A    between atoms: _620  and  _622
REMARK  238  A    between atoms: _622  and  _623
REMARK  239  A    between atoms: _622  and  _625
REMARK  240  A    between atoms: _625  and  _626
REMARK  241  A    between atoms: _629  and  _631
REMARK  242  A    between atoms: _631  and  _632
REMARK  243  A    between atoms: _631  and  _634
REMARK  244  A    between atoms: _634  and  _635
REMARK  245  A    between atoms: _645  and  _647
REMARK  246  A    between atoms: _647  and  _648
REMARK  247  A    between atoms: _647  and  _650
REMARK  248  A    between atoms: _650  and  _651
REMARK  249  A    between atoms: _657  and  _658
REMARK  250  A    between atoms: _663  and  _665
REMARK  251  A    between atoms: _665  and  _666
REMARK  252  A    between atoms: _665  and  _668
REMARK  253  A    between atoms: _668  and  _669
REMARK  254  A    between atoms: _672  and  _674
REMARK  255  A    between atoms: _674  and  _675
REMARK  256  A    between atoms: _674  and  _677
REMARK  257  A    between atoms: _677  and  _678
REMARK  258  A    between atoms: _678  and  _679
REMARK  259  A    between atoms: _682  and  _684
REMARK  260  A    between atoms: _684  and  _685
REMARK  261  A    between atoms: _684  and  _687
REMARK  262  A    between atoms: _687  and  _688
REMARK  263  A    between atoms: _688  and  _689
REMARK  264  A    between atoms: _689  and  _690
REMARK  265  A    between atoms: _690  and  _691
REMARK  266  A    between atoms: _695  and  _697
REMARK  267  A    between atoms: _697  and  _698
REMARK  268  A    between atoms: _700  and  _702
REMARK  269  A    between atoms: _702  and  _703
REMARK  270  A    between atoms: _702  and  _705
REMARK  271  A    between atoms: _705  and  _706
REMARK  272  A    between atoms: _711  and  _713
REMARK  273  A    between atoms: _713  and  _714
REMARK  274  A    between atoms: _713  and  _716
REMARK  275  A    between atoms: _716  and  _717
REMARK  276  A    between atoms: _717  and  _718
REMARK  277  A    between atoms: _718  and  _719
REMARK  278  A    between atoms: _728  and  _730
REMARK  279  A    between atoms: _730  and  _731
REMARK  280  A    between atoms: _730  and  _733
REMARK  281  A    between atoms: _733  and  _734
REMARK  282  A    between atoms: _737  and  _739
REMARK  283  A    between atoms: _739  and  _740
REMARK  284  A    between atoms: _739  and  _742
REMARK  285  A    between atoms: _745  and  _747
REMARK  286  A    between atoms: _747  and  _748
REMARK  287  A    between atoms: _747  and  _750
REMARK  288  A    between atoms: _750  and  _751
REMARK  289  A    between atoms: _751  and  _752
REMARK  290  A    between atoms: _758  and  _759
REMARK  291  A    between atoms: _764  and  _766
REMARK  292  A    between atoms: _766  and  _767
REMARK  293  A    between atoms: _766  and  _769
REMARK  294  A    between atoms: _769  and  _770
REMARK  295  A    between atoms: _773  and  _775
REMARK  296  A    between atoms: _775  and  _776
REMARK  297  A    between atoms: _775  and  _778
REMARK  298  A    between atoms: _778  and  _779
REMARK  299  A    between atoms: _782  and  _784
REMARK  300  A    between atoms: _784  and  _785
REMARK  301  A    between atoms: _784  and  _787
REMARK  302  A    between atoms: _787  and  _788
REMARK  303  A    between atoms: _790  and  _792
REMARK  304  A    between atoms: _792  and  _793
REMARK  305  A    between atoms: _792  and  _795
REMARK  306  A    between atoms: _795  and  _796
REMARK  307  A    between atoms: _796  and  _797
REMARK  308  A    between atoms: _797  and  _798
REMARK  309  A    between atoms: _807  and  _809
REMARK  310  A    between atoms: _809  and  _810
REMARK                            x       y       z     vdW  Elec       q    Type
REMARK                         _______ _______ _______ _____ _____    ______ ____
ROOT
ATOM      1  O   HOH     1     -33.683 -20.396 -10.242  0.00  0.00    +0.000 OA
ENDROOT
TORSDOF 0
REMARK  Name = ../refined-set-2016/3rt4/3rt4_pocket.pdb
REMARK  310 active torsions:
REMARK  status: ('A' for Active; 'I' for Inactive)
REMARK    1  A    between atoms: _1  and  _3
REMARK    2  A    between atoms: _3  and  _4
REMARK    3  A    between atoms: _3  and  _6
REMARK    4  A    between atoms: _6  and  _7
REMARK    5  A    between atoms: _7  and  _8
REMARK    6  A    between atoms: _8  and  _9
REMARK    7  A    between atoms: _18  and  _20
REMARK    8  A    between atoms: _20  and  _21
REMARK    9  A    between atoms: _20  and  _23
REMARK   10  A    between atoms: _26  and  _28
REMARK   11  A    between atoms: _28  and  _29
REMARK   12  A    between atoms: _28  and  _31
REMARK   13  A    between atoms: _31  and  _32
REMARK   14  A    between atoms: _32  and  _33
REMARK   15  A    between atoms: _33  and  _34
REMARK   16  A    between atoms: _43  and  _45
REMARK   17  A    between atoms: _45  and  _46
REMARK   18  A    between atoms: _45  and  _48
REMARK   19  A    between atoms: _48  and  _49
REMARK   20  A    between atoms: _51  and  _53
REMARK   21  A    between atoms: _53  and  _54
REMARK   22  A    between atoms: _53  and  _56
REMARK   23  A    between atoms: _56  and  _57
REMARK   24  A    between atoms: _62  and  _64
REMARK   25  A    between atoms: _64  and  _65
REMARK   26  A    between atoms: _64  and  _67
REMARK   27  A    between atoms: _67  and  _68
REMARK   28  A    between atoms: _73  and  _74
REMARK   29  A    between atoms: _76  and  _78
REMARK   30  A    between atoms: _78  and  _79
REMARK   31  A    between atoms: _78  and  _81
REMARK   32  A    between atoms: _81  and  _82
REMARK   33  A    between atoms: _82  and  _83
REMARK   34  A    between atoms: _86  and  _88
REMARK   35  A    between atoms: _88  and  _89
REMARK   36  A    between atoms: _88  and  _91
REMARK   37  A    between atoms: _91  and  _92
REMARK   38  A    between atoms: _92  and  _93
REMARK   39  A    between atoms: _93  and  _94
REMARK   40  A    between atoms: _94  and  _95
REMARK   41  A    between atoms: _99  and  _101
REMARK   42  A    between atoms: _101  and  _102
REMARK   43  A    between atoms: _101  and  _104
REMARK   44  A    between atoms: _104  and  _105
REMARK   45  A    between atoms: _110  and  _111
REMARK   46  A    between atoms: _113  and  _115
REMARK   47  A    between atoms: _115  and  _116
REMARK   48  A    between atoms: _115  and  _118
REMARK   49  A    between atoms: _118  and  _119
REMARK   50  A    between atoms: _119  and  _120
REMARK   51  A    between atoms: _120  and  _121
REMARK   52  A    between atoms: _130  and  _132
REMARK   53  A    between atoms: _132  and  _133
REMARK   54  A    between atoms: _136  and  _138
REMARK   55  A    between atoms: _138  and  _139
REMARK   56  A    between atoms: _138  and  _141
REMARK   57  A    between atoms: _141  and  _142
REMARK   58  A    between atoms: _142  and  _258
REMARK   59  A    between atoms: _143  and  _145
REMARK   60  A    between atoms: _145  and  _146
REMARK   61  A    between atoms: _145  and  _148
REMARK   62  A    between atoms: _148  and  _149
REMARK   63  A    between atoms: _149  and  _150
REMARK   64  A    between atoms: _153  and  _155
REMARK   65  A    between atoms: _155  and  _156
REMARK   66  A    between atoms: _155  and  _158
REMARK   67  A    between atoms: _158  and  _159
REMARK   68  A    between atoms: _161  and  _163
REMARK   69  A    between atoms: _163  and  _164
REMARK   70  A    between atoms: _163  and  _166
REMARK   71  A    between atoms: _166  and  _167
REMARK   72  A    between atoms: _172  and  _173
REMARK   73  A    between atoms: _175  and  _177
REMARK   74  A    between atoms: _177  and  _178
REMARK   75  A    between atoms: _177  and  _180
REMARK   76  A    between atoms: _180  and  _181
REMARK   77  A    between atoms: _186  and  _188
REMARK   78  A    between atoms: _188  and  _189
REMARK   79  A    between atoms: _188  and  _191
REMARK   80  A    between atoms: _194  and  _196
REMARK   81  A    between atoms: _196  and  _197
REMARK   82  A    between atoms: _196  and  _199
REMARK   83  A    between atoms: _199  and  _200
REMARK   84  A    between atoms: _200  and  _201
REMARK   85  A    between atoms: _201  and  _202
REMARK   86  A    between atoms: _211  and  _213
REMARK   87  A    between atoms: _213  and  _214
REMARK   88  A    between atoms: _213  and  _216
REMARK   89  A    between atoms: _216  and  _217
REMARK   90  A    between atoms: _222  and  _224
REMARK   91  A    between atoms: _224  and  _225
REMARK   92  A    between atoms: _224  and  _227
REMARK   93  A    between atoms: _227  and  _228
REMARK   94  A    between atoms: _231  and  _233
REMARK   95  A    between atoms: _233  and  _234
REMARK   96  A    between atoms: _236  and  _238
REMARK   97  A    between atoms: _238  and  _239
REMARK   98  A    between atoms: _238  and  _241
REMARK   99  A    between atoms: _241  and  _242
REMARK  100  A    between atoms: _252  and  _254
REMARK  101  A    between atoms: _254  and  _255
REMARK  102  A    between atoms: _254  and  _257
REMARK  103  A    between atoms: _257  and  _258
REMARK  104  A    between atoms: _259  and  _261
REMARK  105  A    between atoms: _261  and  _262
REMARK  106  A    between atoms: _261  and  _264
REMARK  107  A    between atoms: _264  and  _265
REMARK  108  A    between atoms: _268  and  _270
REMARK  109  A    between atoms: _270  and  _271
REMARK  110  A    between atoms: _273  and  _275
REMARK  111  A    between atoms: _275  and  _276
REMARK  112  A    between atoms: _275  and  _278
REMARK  113  A    between atoms: _278  and  _279
REMARK  114  A    between atoms: _284  and  _285
REMARK  115  A    between atoms: _287  and  _289
REMARK  116  A    between atoms: _289  and  _290
REMARK  117  A    between atoms: _289  and  _292
REMARK  118  A    between atoms: _292  and  _293
REMARK  119  A    between atoms: _293  and  _294
REMARK  120  A    between atoms: _294  and  _295
REMARK  121  A    between atoms: _304  and  _306
REMARK  122  A    between atoms: _306  and  _307
REMARK  123  A    between atoms: _306  and  _309
REMARK  124  A    between atoms: _309  and  _310
REMARK  125  A    between atoms: _310  and  _311
REMARK  126  A    between atoms: _311  and  _312
REMARK  127  A    between atoms: _312  and  _313
REMARK  128  A    between atoms: _317  and  _319
REMARK  129  A    between atoms: _319  and  _320
REMARK  130  A    between atoms: _322  and  _324
REMARK  131  A    between atoms: _324  and  _325
REMARK  132  A    between atoms: _328  and  _330
REMARK  133  A    between atoms: _330  and  _331
REMARK  134  A    between atoms: _330  and  _333
REMARK  135  A    between atoms: _333  and  _334
REMARK  136  A    between atoms: _339  and  _341
REMARK  137  A    between atoms: _341  and  _342
REMARK  138  A    between atoms: _345  and  _347
REMARK  139  A    between atoms: _347  and  _348
REMARK  140  A    between atoms: _351  and  _352
REMARK  141  A    between atoms: _357  and  _359
REMARK  142  A    between atoms: _359  and  _360
REMARK  143  A    between atoms: _359  and  _362
REMARK  144  A    between atoms: _362  and  _363
REMARK  145  A    between atoms: _366  and  _368
REMARK  146  A    between atoms: _368  and  _369
REMARK  147  A    between atoms: _368  and  _371
REMARK  148  A    between atoms: _371  and  _372
REMARK  149  A    between atoms: _382  and  _384
REMARK  150  A    between atoms: _384  and  _385
REMARK  151  A    between atoms: _384  and  _387
REMARK  152  A    between atoms: _387  and  _388
REMARK  153  A    between atoms: _394  and  _395
REMARK  154  A    between atoms: _400  and  _402
REMARK  155  A    between atoms: _402  and  _403
REMARK  156  A    between atoms: _402  and  _405
REMARK  157  A    between atoms: _405  and  _406
REMARK  158  A    between atoms: _409  and  _411
REMARK  159  A    between atoms: _411  and  _412
REMARK  160  A    between atoms: _411  and  _414
REMARK  161  A    between atoms: _414  and  _415
REMARK  162  A    between atoms: _417  and  _419
REMARK  163  A    between atoms: _419  and  _420
REMARK  164  A    between atoms: _419  and  _422
REMARK  165  A    between atoms: _422  and  _423
REMARK  166  A    between atoms: _428  and  _430
REMARK  167  A    between atoms: _430  and  _431
REMARK  168  A    between atoms: _430  and  _433
REMARK  169  A    between atoms: _436  and  _438
REMARK  170  A    between atoms: _438  and  _439
REMARK  171  A    between atoms: _438  and  _441
REMARK  172  A    between atoms: _441  and  _442
REMARK  173  A    between atoms: _442  and  _443
REMARK  174  A    between atoms: _449  and  _450
REMARK  175  A    between atoms: _455  and  _457
REMARK  176  A    between atoms: _457  and  _458
REMARK  177  A    between atoms: _457  and  _460
REMARK  178  A    between atoms: _460  and  _461
REMARK  179  A    between atoms: _464  and  _466
REMARK  180  A    between atoms: _466  and  _467
REMARK  181  A    between atoms: _466  and  _469
REMARK  182  A    between atoms: _469  and  _470
REMARK  183  A    between atoms: _473  and  _475
REMARK  184  A    between atoms: _475  and  _476
REMARK  185  A    between atoms: _475  and  _478
REMARK  186  A    between atoms: _478  and  _479
REMARK  187  A    between atoms: _481  and  _483
REMARK  188  A    between atoms: _483  and  _484
REMARK  189  A    between atoms: _483  and  _486
REMARK  190  A    between atoms: _486  and  _487
REMARK  191  A    between atoms: _492  and  _493
REMARK  192  A    between atoms: _495  and  _497
REMARK  193  A    between atoms: _497  and  _498
REMARK  194  A    between atoms: _497  and  _500
REMARK  195  A    between atoms: _500  and  _501
REMARK  196  A    between atoms: _506  and  _508
REMARK  197  A    between atoms: _508  and  _509
REMARK  198  A    between atoms: _508  and  _511
REMARK  199  A    between atoms: _511  and  _512
REMARK  200  A    between atoms: _515  and  _517
REMARK  201  A    between atoms: _517  and  _518
REMARK  202  A    between atoms: _517  and  _520
REMARK  203  A    between atoms: _520  and  _521
REMARK  204  A    between atoms: _531  and  _533
REMARK  205  A    between atoms: _533  and  _534
REMARK  206  A    between atoms: _536  and  _538
REMARK  207  A    between atoms: _538  and  _539
REMARK  208  A    between atoms: _538  and  _541
REMARK  209  A    between atoms: _541  and  _542
REMARK  210  A    between atoms: _547  and  _548
REMARK  211  A    between atoms: _550  and  _552
REMARK  212  A    between atoms: _552  and  _553
REMARK  213  A    between atoms: _552  and  _555
REMARK  214  A    between atoms: _555  and  _556
REMARK  215  A    between atoms: _556  and  _557
REMARK  216  A    between atoms: _557  and  _558
REMARK  217  A    between atoms: _567  and  _569
REMARK  218  A    between atoms: _569  and  _570
REMARK  219  A    between atoms: _569  and  _572
REMARK  220  A    between atoms: _572  and  _573
REMARK  221  A    between atoms: _573  and  _574
REMARK  222  A    between atoms: _574  and  _575
REMARK  223  A    between atoms: _575  and  _576
REMARK  224  A    between atoms: _580  and  _582
REMARK  225  A    between atoms: _582  and  _583
REMARK  226  A    between atoms: _585  and  _587
REMARK  227  A    between atoms: _587  and  _588
REMARK  228  A    between atoms: _591  and  _593
REMARK  229  A    between atoms: _593  and  _594
REMARK  230  A    between atoms: _593  and  _596
REMARK  231  A    between atoms: _596  and  _597
REMARK  232  A    between atoms: _602  and  _604
REMARK  233  A    between atoms: _604  and  _605
REMARK  234  A    between atoms: _608  and  _610
REMARK  235  A    between atoms: _610  and  _611
REMARK  236  A    between atoms: _614  and  _615
REMARK  237  A    between atoms: _620  and  _622
REMARK  238  A    between atoms: _622  and  _623
REMARK  239  A    between atoms: _622  and  _625
REMARK  240  A    between atoms: _625  and  _626
REMARK  241  A    between atoms: _629  and  _631
REMARK  242  A    between atoms: _631  and  _632
REMARK  243  A    between atoms: _631  and  _634
REMARK  244  A    between atoms: _634  and  _635
REMARK  245  A    between atoms: _645  and  _647
REMARK  246  A    between atoms: _647  and  _648
REMARK  247  A    between atoms: _647  and  _650
REMARK  248  A    between atoms: _650  and  _651
REMARK  249  A    between atoms: _657  and  _658
REMARK  250  A    between atoms: _663  and  _665
REMARK  251  A    between atoms: _665  and  _666
REMARK  252  A    between atoms: _665  and  _668
REMARK  253  A    between atoms: _668  and  _669
REMARK  254  A    between atoms: _672  and  _674
REMARK  255  A    between atoms: _674  and  _675
REMARK  256  A    between atoms: _674  and  _677
REMARK  257  A    between atoms: _677  and  _678
REMARK  258  A    between atoms: _678  and  _679
REMARK  259  A    between atoms: _682  and  _684
REMARK  260  A    between atoms: _684  and  _685
REMARK  261  A    between atoms: _684  and  _687
REMARK  262  A    between atoms: _687  and  _688
REMARK  263  A    between atoms: _688  and  _689
REMARK  264  A    between atoms: _689  and  _690
REMARK  265  A    between atoms: _690  and  _691
REMARK  266  A    between atoms: _695  and  _697
REMARK  267  A    between atoms: _697  and  _698
REMARK  268  A    between atoms: _700  and  _702
REMARK  269  A    between atoms: _702  and  _703
REMARK  270  A    between atoms: _702  and  _705
REMARK  271  A    between atoms: _705  and  _706
REMARK  272  A    between atoms: _711  and  _713
REMARK  273  A    between atoms: _713  and  _714
REMARK  274  A    between atoms: _713  and  _716
REMARK  275  A    between atoms: _716  and  _717
REMARK  276  A    between atoms: _717  and  _718
REMARK  277  A    between atoms: _718  and  _719
REMARK  278  A    between atoms: _728  and  _730
REMARK  279  A    between atoms: _730  and  _731
REMARK  280  A    between atoms: _730  and  _733
REMARK  281  A    between atoms: _733  and  _734
REMARK  282  A    between atoms: _737  and  _739
REMARK  283  A    between atoms: _739  and  _740
REMARK  284  A    between atoms: _739  and  _742
REMARK  285  A    between atoms: _745  and  _747
REMARK  286  A    between atoms: _747  and  _748
REMARK  287  A    between atoms: _747  and  _750
REMARK  288  A    between atoms: _750  and  _751
REMARK  289  A    between atoms: _751  and  _752
REMARK  290  A    between atoms: _758  and  _759
REMARK  291  A    between atoms: _764  and  _766
REMARK  292  A    between atoms: _766  and  _767
REMARK  293  A    between atoms: _766  and  _769
REMARK  294  A    between atoms: _769  and  _770
REMARK  295  A    between atoms: _773  and  _775
REMARK  296  A    between atoms: _775  and  _776
REMARK  297  A    between atoms: _775  and  _778
REMARK  298  A    between atoms: _778  and  _779
REMARK  299  A    between atoms: _782  and  _784
REMARK  300  A    between atoms: _784  and  _785
REMARK  301  A    between atoms: _784  and  _787
REMARK  302  A    between atoms: _787  and  _788
REMARK  303  A    between atoms: _790  and  _792
REMARK  304  A    between atoms: _792  and  _793
REMARK  305  A    between atoms: _792  and  _795
REMARK  306  A    between atoms: _795  and  _796
REMARK  307  A    between atoms: _796  and  _797
REMARK  308  A    between atoms: _797  and  _798
REMARK  309  A    between atoms: _807  and  _809
REMARK  310  A    between atoms: _809  and  _810
REMARK                            x       y       z     vdW  Elec       q    Type
REMARK                         _______ _______ _______ _____ _____    ______ ____
ROOT
ATOM      1  O   HOH     1     -40.538 -28.159 -30.542  0.00  0.00    +0.000 OA
ENDROOT
TORSDOF 0
REMARK  Name = ../refined-set-2016/3rt4/3rt4_pocket.pdb
REMARK  310 active torsions:
REMARK  status: ('A' for Active; 'I' for Inactive)
REMARK    1  A    between atoms: _1  and  _3
REMARK    2  A    between atoms: _3  and  _4
REMARK    3  A    between atoms: _3  and  _6
REMARK    4  A    between atoms: _6  and  _7
REMARK    5  A    between atoms: _7  and  _8
REMARK    6  A    between atoms: _8  and  _9
REMARK    7  A    between atoms: _18  and  _20
REMARK    8  A    between atoms: _20  and  _21
REMARK    9  A    between atoms: _20  and  _23
REMARK   10  A    between atoms: _26  and  _28
REMARK   11  A    between atoms: _28  and  _29
REMARK   12  A    between atoms: _28  and  _31
REMARK   13  A    between atoms: _31  and  _32
REMARK   14  A    between atoms: _32  and  _33
REMARK   15  A    between atoms: _33  and  _34
REMARK   16  A    between atoms: _43  and  _45
REMARK   17  A    between atoms: _45  and  _46
REMARK   18  A    between atoms: _45  and  _48
REMARK   19  A    between atoms: _48  and  _49
REMARK   20  A    between atoms: _51  and  _53
REMARK   21  A    between atoms: _53  and  _54
REMARK   22  A    between atoms: _53  and  _56
REMARK   23  A    between atoms: _56  and  _57
REMARK   24  A    between atoms: _62  and  _64
REMARK   25  A    between atoms: _64  and  _65
REMARK   26  A    between atoms: _64  and  _67
REMARK   27  A    between atoms: _67  and  _68
REMARK   28  A    between atoms: _73  and  _74
REMARK   29  A    between atoms: _76  and  _78
REMARK   30  A    between atoms: _78  and  _79
REMARK   31  A    between atoms: _78  and  _81
REMARK   32  A    between atoms: _81  and  _82
REMARK   33  A    between atoms: _82  and  _83
REMARK   34  A    between atoms: _86  and  _88
REMARK   35  A    between atoms: _88  and  _89
REMARK   36  A    between atoms: _88  and  _91
REMARK   37  A    between atoms: _91  and  _92
REMARK   38  A    between atoms: _92  and  _93
REMARK   39  A    between atoms: _93  and  _94
REMARK   40  A    between atoms: _94  and  _95
REMARK   41  A    between atoms: _99  and  _101
REMARK   42  A    between atoms: _101  and  _102
REMARK   43  A    between atoms: _101  and  _104
REMARK   44  A    between atoms: _104  and  _105
REMARK   45  A    between atoms: _110  and  _111
REMARK   46  A    between atoms: _113  and  _115
REMARK   47  A    between atoms: _115  and  _116
REMARK   48  A    between atoms: _115  and  _118
REMARK   49  A    between atoms: _118  and  _119
REMARK   50  A    between atoms: _119  and  _120
REMARK   51  A    between atoms: _120  and  _121
REMARK   52  A    between atoms: _130  and  _132
REMARK   53  A    between atoms: _132  and  _133
REMARK   54  A    between atoms: _136  and  _138
REMARK   55  A    between atoms: _138  and  _139
REMARK   56  A    between atoms: _138  and  _141
REMARK   57  A    between atoms: _141  and  _142
REMARK   58  A    between atoms: _142  and  _258
REMARK   59  A    between atoms: _143  and  _145
REMARK   60  A    between atoms: _145  and  _146
REMARK   61  A    between atoms: _145  and  _148
REMARK   62  A    between atoms: _148  and  _149
REMARK   63  A    between atoms: _149  and  _150
REMARK   64  A    between atoms: _153  and  _155
REMARK   65  A    between atoms: _155  and  _156
REMARK   66  A    between atoms: _155  and  _158
REMARK   67  A    between atoms: _158  and  _159
REMARK   68  A    between atoms: _161  and  _163
REMARK   69  A    between atoms: _163  and  _164
REMARK   70  A    between atoms: _163  and  _166
REMARK   71  A    between atoms: _166  and  _167
REMARK   72  A    between atoms: _172  and  _173
REMARK   73  A    between atoms: _175  and  _177
REMARK   74  A    between atoms: _177  and  _178
REMARK   75  A    between atoms: _177  and  _180
REMARK   76  A    between atoms: _180  and  _181
REMARK   77  A    between atoms: _186  and  _188
REMARK   78  A    between atoms: _188  and  _189
REMARK   79  A    between atoms: _188  and  _191
REMARK   80  A    between atoms: _194  and  _196
REMARK   81  A    between atoms: _196  and  _197
REMARK   82  A    between atoms: _196  and  _199
REMARK   83  A    between atoms: _199  and  _200
REMARK   84  A    between atoms: _200  and  _201
REMARK   85  A    between atoms: _201  and  _202
REMARK   86  A    between atoms: _211  and  _213
REMARK   87  A    between atoms: _213  and  _214
REMARK   88  A    between atoms: _213  and  _216
REMARK   89  A    between atoms: _216  and  _217
REMARK   90  A    between atoms: _222  and  _224
REMARK   91  A    between atoms: _224  and  _225
REMARK   92  A    between atoms: _224  and  _227
REMARK   93  A    between atoms: _227  and  _228
REMARK   94  A    between atoms: _231  and  _233
REMARK   95  A    between atoms: _233  and  _234
REMARK   96  A    between atoms: _236  and  _238
REMARK   97  A    between atoms: _238  and  _239
REMARK   98  A    between atoms: _238  and  _241
REMARK   99  A    between atoms: _241  and  _242
REMARK  100  A    between atoms: _252  and  _254
REMARK  101  A    between atoms: _254  and  _255
REMARK  102  A    between atoms: _254  and  _257
REMARK  103  A    between atoms: _257  and  _258
REMARK  104  A    between atoms: _259  and  _261
REMARK  105  A    between atoms: _261  and  _262
REMARK  106  A    between atoms: _261  and  _264
REMARK  107  A    between atoms: _264  and  _265
REMARK  108  A    between atoms: _268  and  _270
REMARK  109  A    between atoms: _270  and  _271
REMARK  110  A    between atoms: _273  and  _275
REMARK  111  A    between atoms: _275  and  _276
REMARK  112  A    between atoms: _275  and  _278
REMARK  113  A    between atoms: _278  and  _279
REMARK  114  A    between atoms: _284  and  _285
REMARK  115  A    between atoms: _287  and  _289
REMARK  116  A    between atoms: _289  and  _290
REMARK  117  A    between atoms: _289  and  _292
REMARK  118  A    between atoms: _292  and  _293
REMARK  119  A    between atoms: _293  and  _294
REMARK  120  A    between atoms: _294  and  _295
REMARK  121  A    between atoms: _304  and  _306
REMARK  122  A    between atoms: _306  and  _307
REMARK  123  A    between atoms: _306  and  _309
REMARK  124  A    between atoms: _309  and  _310
REMARK  125  A    between atoms: _310  and  _311
REMARK  126  A    between atoms: _311  and  _312
REMARK  127  A    between atoms: _312  and  _313
REMARK  128  A    between atoms: _317  and  _319
REMARK  129  A    between atoms: _319  and  _320
REMARK  130  A    between atoms: _322  and  _324
REMARK  131  A    between atoms: _324  and  _325
REMARK  132  A    between atoms: _328  and  _330
REMARK  133  A    between atoms: _330  and  _331
REMARK  134  A    between atoms: _330  and  _333
REMARK  135  A    between atoms: _333  and  _334
REMARK  136  A    between atoms: _339  and  _341
REMARK  137  A    between atoms: _341  and  _342
REMARK  138  A    between atoms: _345  and  _347
REMARK  139  A    between atoms: _347  and  _348
REMARK  140  A    between atoms: _351  and  _352
REMARK  141  A    between atoms: _357  and  _359
REMARK  142  A    between atoms: _359  and  _360
REMARK  143  A    between atoms: _359  and  _362
REMARK  144  A    between atoms: _362  and  _363
REMARK  145  A    between atoms: _366  and  _368
REMARK  146  A    between atoms: _368  and  _369
REMARK  147  A    between atoms: _368  and  _371
REMARK  148  A    between atoms: _371  and  _372
REMARK  149  A    between atoms: _382  and  _384
REMARK  150  A    between atoms: _384  and  _385
REMARK  151  A    between atoms: _384  and  _387
REMARK  152  A    between atoms: _387  and  _388
REMARK  153  A    between atoms: _394  and  _395
REMARK  154  A    between atoms: _400  and  _402
REMARK  155  A    between atoms: _402  and  _403
REMARK  156  A    between atoms: _402  and  _405
REMARK  157  A    between atoms: _405  and  _406
REMARK  158  A    between atoms: _409  and  _411
REMARK  159  A    between atoms: _411  and  _412
REMARK  160  A    between atoms: _411  and  _414
REMARK  161  A    between atoms: _414  and  _415
REMARK  162  A    between atoms: _417  and  _419
REMARK  163  A    between atoms: _419  and  _420
REMARK  164  A    between atoms: _419  and  _422
REMARK  165  A    between atoms: _422  and  _423
REMARK  166  A    between atoms: _428  and  _430
REMARK  167  A    between atoms: _430  and  _431
REMARK  168  A    between atoms: _430  and  _433
REMARK  169  A    between atoms: _436  and  _438
REMARK  170  A    between atoms: _438  and  _439
REMARK  171  A    between atoms: _438  and  _441
REMARK  172  A    between atoms: _441  and  _442
REMARK  173  A    between atoms: _442  and  _443
REMARK  174  A    between atoms: _449  and  _450
REMARK  175  A    between atoms: _455  and  _457
REMARK  176  A    between atoms: _457  and  _458
REMARK  177  A    between atoms: _457  and  _460
REMARK  178  A    between atoms: _460  and  _461
REMARK  179  A    between atoms: _464  and  _466
REMARK  180  A    between atoms: _466  and  _467
REMARK  181  A    between atoms: _466  and  _469
REMARK  182  A    between atoms: _469  and  _470
REMARK  183  A    between atoms: _473  and  _475
REMARK  184  A    between atoms: _475  and  _476
REMARK  185  A    between atoms: _475  and  _478
REMARK  186  A    between atoms: _478  and  _479
REMARK  187  A    between atoms: _481  and  _483
REMARK  188  A    between atoms: _483  and  _484
REMARK  189  A    between atoms: _483  and  _486
REMARK  190  A    between atoms: _486  and  _487
REMARK  191  A    between atoms: _492  and  _493
REMARK  192  A    between atoms: _495  and  _497
REMARK  193  A    between atoms: _497  and  _498
REMARK  194  A    between atoms: _497  and  _500
REMARK  195  A    between atoms: _500  and  _501
REMARK  196  A    between atoms: _506  and  _508
REMARK  197  A    between atoms: _508  and  _509
REMARK  198  A    between atoms: _508  and  _511
REMARK  199  A    between atoms: _511  and  _512
REMARK  200  A    between atoms: _515  and  _517
REMARK  201  A    between atoms: _517  and  _518
REMARK  202  A    between atoms: _517  and  _520
REMARK  203  A    between atoms: _520  and  _521
REMARK  204  A    between atoms: _531  and  _533
REMARK  205  A    between atoms: _533  and  _534
REMARK  206  A    between atoms: _536  and  _538
REMARK  207  A    between atoms: _538  and  _539
REMARK  208  A    between atoms: _538  and  _541
REMARK  209  A    between atoms: _541  and  _542
REMARK  210  A    between atoms: _547  and  _548
REMARK  211  A    between atoms: _550  and  _552
REMARK  212  A    between atoms: _552  and  _553
REMARK  213  A    between atoms: _552  and  _555
REMARK  214  A    between atoms: _555  and  _556
REMARK  215  A    between atoms: _556  and  _557
REMARK  216  A    between atoms: _557  and  _558
REMARK  217  A    between atoms: _567  and  _569
REMARK  218  A    between atoms: _569  and  _570
REMARK  219  A    between atoms: _569  and  _572
REMARK  220  A    between atoms: _572  and  _573
REMARK  221  A    between atoms: _573  and  _574
REMARK  222  A    between atoms: _574  and  _575
REMARK  223  A    between atoms: _575  and  _576
REMARK  224  A    between atoms: _580  and  _582
REMARK  225  A    between atoms: _582  and  _583
REMARK  226  A    between atoms: _585  and  _587
REMARK  227  A    between atoms: _587  and  _588
REMARK  228  A    between atoms: _591  and  _593
REMARK  229  A    between atoms: _593  and  _594
REMARK  230  A    between atoms: _593  and  _596
REMARK  231  A    between atoms: _596  and  _597
REMARK  232  A    between atoms: _602  and  _604
REMARK  233  A    between atoms: _604  and  _605
REMARK  234  A    between atoms: _608  and  _610
REMARK  235  A    between atoms: _610  and  _611
REMARK  236  A    between atoms: _614  and  _615
REMARK  237  A    between atoms: _620  and  _622
REMARK  238  A    between atoms: _622  and  _623
REMARK  239  A    between atoms: _622  and  _625
REMARK  240  A    between atoms: _625  and  _626
REMARK  241  A    between atoms: _629  and  _631
REMARK  242  A    between atoms: _631  and  _632
REMARK  243  A    between atoms: _631  and  _634
REMARK  244  A    between atoms: _634  and  _635
REMARK  245  A    between atoms: _645  and  _647
REMARK  246  A    between atoms: _647  and  _648
REMARK  247  A    between atoms: _647  and  _650
REMARK  248  A    between atoms: _650  and  _651
REMARK  249  A    between atoms: _657  and  _658
REMARK  250  A    between atoms: _663  and  _665
REMARK  251  A    between atoms: _665  and  _666
REMARK  252  A    between atoms: _665  and  _668
REMARK  253  A    between atoms: _668  and  _669
REMARK  254  A    between atoms: _672  and  _674
REMARK  255  A    between atoms: _674  and  _675
REMARK  256  A    between atoms: _674  and  _677
REMARK  257  A    between atoms: _677  and  _678
REMARK  258  A    between atoms: _678  and  _679
REMARK  259  A    between atoms: _682  and  _684
REMARK  260  A    between atoms: _684  and  _685
REMARK  261  A    between atoms: _684  and  _687
REMARK  262  A    between atoms: _687  and  _688
REMARK  263  A    between atoms: _688  and  _689
REMARK  264  A    between atoms: _689  and  _690
REMARK  265  A    between atoms: _690  and  _691
REMARK  266  A    between atoms: _695  and  _697
REMARK  267  A    between atoms: _697  and  _698
REMARK  268  A    between atoms: _700  and  _702
REMARK  269  A    between atoms: _702  and  _703
REMARK  270  A    between atoms: _702  and  _705
REMARK  271  A    between atoms: _705  and  _706
REMARK  272  A    between atoms: _711  and  _713
REMARK  273  A    between atoms: _713  and  _714
REMARK  274  A    between atoms: _713  and  _716
REMARK  275  A    between atoms: _716  and  _717
REMARK  276  A    between atoms: _717  and  _718
REMARK  277  A    between atoms: _718  and  _719
REMARK  278  A    between atoms: _728  and  _730
REMARK  279  A    between atoms: _730  and  _731
REMARK  280  A    between atoms: _730  and  _733
REMARK  281  A    between atoms: _733  and  _734
REMARK  282  A    between atoms: _737  and  _739
REMARK  283  A    between atoms: _739  and  _740
REMARK  284  A    between atoms: _739  and  _742
REMARK  285  A    between atoms: _745  and  _747
REMARK  286  A    between atoms: _747  and  _748
REMARK  287  A    between atoms: _747  and  _750
REMARK  288  A    between atoms: _750  and  _751
REMARK  289  A    between atoms: _751  and  _752
REMARK  290  A    between atoms: _758  and  _759
REMARK  291  A    between atoms: _764  and  _766
REMARK  292  A    between atoms: _766  and  _767
REMARK  293  A    between atoms: _766  and  _769
REMARK  294  A    between atoms: _769  and  _770
REMARK  295  A    between atoms: _773  and  _775
REMARK  296  A    between atoms: _775  and  _776
REMARK  297  A    between atoms: _775  and  _778
REMARK  298  A    between atoms: _778  and  _779
REMARK  299  A    between atoms: _782  and  _784
REMARK  300  A    between atoms: _784  and  _785
REMARK  301  A    between atoms: _784  and  _787
REMARK  302  A    between atoms: _787  and  _788
REMARK  303  A    between atoms: _790  and  _792
REMARK  304  A    between atoms: _792  and  _793
REMARK  305  A    between atoms: _792  and  _795
REMARK  306  A    between atoms: _795  and  _796
REMARK  307  A    between atoms: _796  and  _797
REMARK  308  A    between atoms: _797  and  _798
REMARK  309  A    between atoms: _807  and  _809
REMARK  310  A    between atoms: _809  and  _810
REMARK                            x       y       z     vdW  Elec       q    Type
REMARK                         _______ _______ _______ _____ _____    ______ ____
ROOT
ATOM      1  O   HOH     1     -31.499 -19.453  -8.441  0.00  0.00    +0.000 OA
ENDROOT
TORSDOF 0
REMARK  Name = ../refined-set-2016/3rt4/3rt4_pocket.pdb
REMARK  310 active torsions:
REMARK  status: ('A' for Active; 'I' for Inactive)
REMARK    1  A    between atoms: _1  and  _3
REMARK    2  A    between atoms: _3  and  _4
REMARK    3  A    between atoms: _3  and  _6
REMARK    4  A    between atoms: _6  and  _7
REMARK    5  A    between atoms: _7  and  _8
REMARK    6  A    between atoms: _8  and  _9
REMARK    7  A    between atoms: _18  and  _20
REMARK    8  A    between atoms: _20  and  _21
REMARK    9  A    between atoms: _20  and  _23
REMARK   10  A    between atoms: _26  and  _28
REMARK   11  A    between atoms: _28  and  _29
REMARK   12  A    between atoms: _28  and  _31
REMARK   13  A    between atoms: _31  and  _32
REMARK   14  A    between atoms: _32  and  _33
REMARK   15  A    between atoms: _33  and  _34
REMARK   16  A    between atoms: _43  and  _45
REMARK   17  A    between atoms: _45  and  _46
REMARK   18  A    between atoms: _45  and  _48
REMARK   19  A    between atoms: _48  and  _49
REMARK   20  A    between atoms: _51  and  _53
REMARK   21  A    between atoms: _53  and  _54
REMARK   22  A    between atoms: _53  and  _56
REMARK   23  A    between atoms: _56  and  _57
REMARK   24  A    between atoms: _62  and  _64
REMARK   25  A    between atoms: _64  and  _65
REMARK   26  A    between atoms: _64  and  _67
REMARK   27  A    between atoms: _67  and  _68
REMARK   28  A    between atoms: _73  and  _74
REMARK   29  A    between atoms: _76  and  _78
REMARK   30  A    between atoms: _78  and  _79
REMARK   31  A    between atoms: _78  and  _81
REMARK   32  A    between atoms: _81  and  _82
REMARK   33  A    between atoms: _82  and  _83
REMARK   34  A    between atoms: _86  and  _88
REMARK   35  A    between atoms: _88  and  _89
REMARK   36  A    between atoms: _88  and  _91
REMARK   37  A    between atoms: _91  and  _92
REMARK   38  A    between atoms: _92  and  _93
REMARK   39  A    between atoms: _93  and  _94
REMARK   40  A    between atoms: _94  and  _95
REMARK   41  A    between atoms: _99  and  _101
REMARK   42  A    between atoms: _101  and  _102
REMARK   43  A    between atoms: _101  and  _104
REMARK   44  A    between atoms: _104  and  _105
REMARK   45  A    between atoms: _110  and  _111
REMARK   46  A    between atoms: _113  and  _115
REMARK   47  A    between atoms: _115  and  _116
REMARK   48  A    between atoms: _115  and  _118
REMARK   49  A    between atoms: _118  and  _119
REMARK   50  A    between atoms: _119  and  _120
REMARK   51  A    between atoms: _120  and  _121
REMARK   52  A    between atoms: _130  and  _132
REMARK   53  A    between atoms: _132  and  _133
REMARK   54  A    between atoms: _136  and  _138
REMARK   55  A    between atoms: _138  and  _139
REMARK   56  A    between atoms: _138  and  _141
REMARK   57  A    between atoms: _141  and  _142
REMARK   58  A    between atoms: _142  and  _258
REMARK   59  A    between atoms: _143  and  _145
REMARK   60  A    between atoms: _145  and  _146
REMARK   61  A    between atoms: _145  and  _148
REMARK   62  A    between atoms: _148  and  _149
REMARK   63  A    between atoms: _149  and  _150
REMARK   64  A    between atoms: _153  and  _155
REMARK   65  A    between atoms: _155  and  _156
REMARK   66  A    between atoms: _155  and  _158
REMARK   67  A    between atoms: _158  and  _159
REMARK   68  A    between atoms: _161  and  _163
REMARK   69  A    between atoms: _163  and  _164
REMARK   70  A    between atoms: _163  and  _166
REMARK   71  A    between atoms: _166  and  _167
REMARK   72  A    between atoms: _172  and  _173
REMARK   73  A    between atoms: _175  and  _177
REMARK   74  A    between atoms: _177  and  _178
REMARK   75  A    between atoms: _177  and  _180
REMARK   76  A    between atoms: _180  and  _181
REMARK   77  A    between atoms: _186  and  _188
REMARK   78  A    between atoms: _188  and  _189
REMARK   79  A    between atoms: _188  and  _191
REMARK   80  A    between atoms: _194  and  _196
REMARK   81  A    between atoms: _196  and  _197
REMARK   82  A    between atoms: _196  and  _199
REMARK   83  A    between atoms: _199  and  _200
REMARK   84  A    between atoms: _200  and  _201
REMARK   85  A    between atoms: _201  and  _202
REMARK   86  A    between atoms: _211  and  _213
REMARK   87  A    between atoms: _213  and  _214
REMARK   88  A    between atoms: _213  and  _216
REMARK   89  A    between atoms: _216  and  _217
REMARK   90  A    between atoms: _222  and  _224
REMARK   91  A    between atoms: _224  and  _225
REMARK   92  A    between atoms: _224  and  _227
REMARK   93  A    between atoms: _227  and  _228
REMARK   94  A    between atoms: _231  and  _233
REMARK   95  A    between atoms: _233  and  _234
REMARK   96  A    between atoms: _236  and  _238
REMARK   97  A    between atoms: _238  and  _239
REMARK   98  A    between atoms: _238  and  _241
REMARK   99  A    between atoms: _241  and  _242
REMARK  100  A    between atoms: _252  and  _254
REMARK  101  A    between atoms: _254  and  _255
REMARK  102  A    between atoms: _254  and  _257
REMARK  103  A    between atoms: _257  and  _258
REMARK  104  A    between atoms: _259  and  _261
REMARK  105  A    between atoms: _261  and  _262
REMARK  106  A    between atoms: _261  and  _264
REMARK  107  A    between atoms: _264  and  _265
REMARK  108  A    between atoms: _268  and  _270
REMARK  109  A    between atoms: _270  and  _271
REMARK  110  A    between atoms: _273  and  _275
REMARK  111  A    between atoms: _275  and  _276
REMARK  112  A    between atoms: _275  and  _278
REMARK  113  A    between atoms: _278  and  _279
REMARK  114  A    between atoms: _284  and  _285
REMARK  115  A    between atoms: _287  and  _289
REMARK  116  A    between atoms: _289  and  _290
REMARK  117  A    between atoms: _289  and  _292
REMARK  118  A    between atoms: _292  and  _293
REMARK  119  A    between atoms: _293  and  _294
REMARK  120  A    between atoms: _294  and  _295
REMARK  121  A    between atoms: _304  and  _306
REMARK  122  A    between atoms: _306  and  _307
REMARK  123  A    between atoms: _306  and  _309
REMARK  124  A    between atoms: _309  and  _310
REMARK  125  A    between atoms: _310  and  _311
REMARK  126  A    between atoms: _311  and  _312
REMARK  127  A    between atoms: _312  and  _313
REMARK  128  A    between atoms: _317  and  _319
REMARK  129  A    between atoms: _319  and  _320
REMARK  130  A    between atoms: _322  and  _324
REMARK  131  A    between atoms: _324  and  _325
REMARK  132  A    between atoms: _328  and  _330
REMARK  133  A    between atoms: _330  and  _331
REMARK  134  A    between atoms: _330  and  _333
REMARK  135  A    between atoms: _333  and  _334
REMARK  136  A    between atoms: _339  and  _341
REMARK  137  A    between atoms: _341  and  _342
REMARK  138  A    between atoms: _345  and  _347
REMARK  139  A    between atoms: _347  and  _348
REMARK  140  A    between atoms: _351  and  _352
REMARK  141  A    between atoms: _357  and  _359
REMARK  142  A    between atoms: _359  and  _360
REMARK  143  A    between atoms: _359  and  _362
REMARK  144  A    between atoms: _362  and  _363
REMARK  145  A    between atoms: _366  and  _368
REMARK  146  A    between atoms: _368  and  _369
REMARK  147  A    between atoms: _368  and  _371
REMARK  148  A    between atoms: _371  and  _372
REMARK  149  A    between atoms: _382  and  _384
REMARK  150  A    between atoms: _384  and  _385
REMARK  151  A    between atoms: _384  and  _387
REMARK  152  A    between atoms: _387  and  _388
REMARK  153  A    between atoms: _394  and  _395
REMARK  154  A    between atoms: _400  and  _402
REMARK  155  A    between atoms: _402  and  _403
REMARK  156  A    between atoms: _402  and  _405
REMARK  157  A    between atoms: _405  and  _406
REMARK  158  A    between atoms: _409  and  _411
REMARK  159  A    between atoms: _411  and  _412
REMARK  160  A    between atoms: _411  and  _414
REMARK  161  A    between atoms: _414  and  _415
REMARK  162  A    between atoms: _417  and  _419
REMARK  163  A    between atoms: _419  and  _420
REMARK  164  A    between atoms: _419  and  _422
REMARK  165  A    between atoms: _422  and  _423
REMARK  166  A    between atoms: _428  and  _430
REMARK  167  A    between atoms: _430  and  _431
REMARK  168  A    between atoms: _430  and  _433
REMARK  169  A    between atoms: _436  and  _438
REMARK  170  A    between atoms: _438  and  _439
REMARK  171  A    between atoms: _438  and  _441
REMARK  172  A    between atoms: _441  and  _442
REMARK  173  A    between atoms: _442  and  _443
REMARK  174  A    between atoms: _449  and  _450
REMARK  175  A    between atoms: _455  and  _457
REMARK  176  A    between atoms: _457  and  _458
REMARK  177  A    between atoms: _457  and  _460
REMARK  178  A    between atoms: _460  and  _461
REMARK  179  A    between atoms: _464  and  _466
REMARK  180  A    between atoms: _466  and  _467
REMARK  181  A    between atoms: _466  and  _469
REMARK  182  A    between atoms: _469  and  _470
REMARK  183  A    between atoms: _473  and  _475
REMARK  184  A    between atoms: _475  and  _476
REMARK  185  A    between atoms: _475  and  _478
REMARK  186  A    between atoms: _478  and  _479
REMARK  187  A    between atoms: _481  and  _483
REMARK  188  A    between atoms: _483  and  _484
REMARK  189  A    between atoms: _483  and  _486
REMARK  190  A    between atoms: _486  and  _487
REMARK  191  A    between atoms: _492  and  _493
REMARK  192  A    between atoms: _495  and  _497
REMARK  193  A    between atoms: _497  and  _498
REMARK  194  A    between atoms: _497  and  _500
REMARK  195  A    between atoms: _500  and  _501
REMARK  196  A    between atoms: _506  and  _508
REMARK  197  A    between atoms: _508  and  _509
REMARK  198  A    between atoms: _508  and  _511
REMARK  199  A    between atoms: _511  and  _512
REMARK  200  A    between atoms: _515  and  _517
REMARK  201  A    between atoms: _517  and  _518
REMARK  202  A    between atoms: _517  and  _520
REMARK  203  A    between atoms: _520  and  _521
REMARK  204  A    between atoms: _531  and  _533
REMARK  205  A    between atoms: _533  and  _534
REMARK  206  A    between atoms: _536  and  _538
REMARK  207  A    between atoms: _538  and  _539
REMARK  208  A    between atoms: _538  and  _541
REMARK  209  A    between atoms: _541  and  _542
REMARK  210  A    between atoms: _547  and  _548
REMARK  211  A    between atoms: _550  and  _552
REMARK  212  A    between atoms: _552  and  _553
REMARK  213  A    between atoms: _552  and  _555
REMARK  214  A    between atoms: _555  and  _556
REMARK  215  A    between atoms: _556  and  _557
REMARK  216  A    between atoms: _557  and  _558
REMARK  217  A    between atoms: _567  and  _569
REMARK  218  A    between atoms: _569  and  _570
REMARK  219  A    between atoms: _569  and  _572
REMARK  220  A    between atoms: _572  and  _573
REMARK  221  A    between atoms: _573  and  _574
REMARK  222  A    between atoms: _574  and  _575
REMARK  223  A    between atoms: _575  and  _576
REMARK  224  A    between atoms: _580  and  _582
REMARK  225  A    between atoms: _582  and  _583
REMARK  226  A    between atoms: _585  and  _587
REMARK  227  A    between atoms: _587  and  _588
REMARK  228  A    between atoms: _591  and  _593
REMARK  229  A    between atoms: _593  and  _594
REMARK  230  A    between atoms: _593  and  _596
REMARK  231  A    between atoms: _596  and  _597
REMARK  232  A    between atoms: _602  and  _604
REMARK  233  A    between atoms: _604  and  _605
REMARK  234  A    between atoms: _608  and  _610
REMARK  235  A    between atoms: _610  and  _611
REMARK  236  A    between atoms: _614  and  _615
REMARK  237  A    between atoms: _620  and  _622
REMARK  238  A    between atoms: _622  and  _623
REMARK  239  A    between atoms: _622  and  _625
REMARK  240  A    between atoms: _625  and  _626
REMARK  241  A    between atoms: _629  and  _631
REMARK  242  A    between atoms: _631  and  _632
REMARK  243  A    between atoms: _631  and  _634
REMARK  244  A    between atoms: _634  and  _635
REMARK  245  A    between atoms: _645  and  _647
REMARK  246  A    between atoms: _647  and  _648
REMARK  247  A    between atoms: _647  and  _650
REMARK  248  A    between atoms: _650  and  _651
REMARK  249  A    between atoms: _657  and  _658
REMARK  250  A    between atoms: _663  and  _665
REMARK  251  A    between atoms: _665  and  _666
REMARK  252  A    between atoms: _665  and  _668
REMARK  253  A    between atoms: _668  and  _669
REMARK  254  A    between atoms: _672  and  _674
REMARK  255  A    between atoms: _674  and  _675
REMARK  256  A    between atoms: _674  and  _677
REMARK  257  A    between atoms: _677  and  _678
REMARK  258  A    between atoms: _678  and  _679
REMARK  259  A    between atoms: _682  and  _684
REMARK  260  A    between atoms: _684  and  _685
REMARK  261  A    between atoms: _684  and  _687
REMARK  262  A    between atoms: _687  and  _688
REMARK  263  A    between atoms: _688  and  _689
REMARK  264  A    between atoms: _689  and  _690
REMARK  265  A    between atoms: _690  and  _691
REMARK  266  A    between atoms: _695  and  _697
REMARK  267  A    between atoms: _697  and  _698
REMARK  268  A    between atoms: _700  and  _702
REMARK  269  A    between atoms: _702  and  _703
REMARK  270  A    between atoms: _702  and  _705
REMARK  271  A    between atoms: _705  and  _706
REMARK  272  A    between atoms: _711  and  _713
REMARK  273  A    between atoms: _713  and  _714
REMARK  274  A    between atoms: _713  and  _716
REMARK  275  A    between atoms: _716  and  _717
REMARK  276  A    between atoms: _717  and  _718
REMARK  277  A    between atoms: _718  and  _719
REMARK  278  A    between atoms: _728  and  _730
REMARK  279  A    between atoms: _730  and  _731
REMARK  280  A    between atoms: _730  and  _733
REMARK  281  A    between atoms: _733  and  _734
REMARK  282  A    between atoms: _737  and  _739
REMARK  283  A    between atoms: _739  and  _740
REMARK  284  A    between atoms: _739  and  _742
REMARK  285  A    between atoms: _745  and  _747
REMARK  286  A    between atoms: _747  and  _748
REMARK  287  A    between atoms: _747  and  _750
REMARK  288  A    between atoms: _750  and  _751
REMARK  289  A    between atoms: _751  and  _752
REMARK  290  A    between atoms: _758  and  _759
REMARK  291  A    between atoms: _764  and  _766
REMARK  292  A    between atoms: _766  and  _767
REMARK  293  A    between atoms: _766  and  _769
REMARK  294  A    between atoms: _769  and  _770
REMARK  295  A    between atoms: _773  and  _775
REMARK  296  A    between atoms: _775  and  _776
REMARK  297  A    between atoms: _775  and  _778
REMARK  298  A    between atoms: _778  and  _779
REMARK  299  A    between atoms: _782  and  _784
REMARK  300  A    between atoms: _784  and  _785
REMARK  301  A    between atoms: _784  and  _787
REMARK  302  A    between atoms: _787  and  _788
REMARK  303  A    between atoms: _790  and  _792
REMARK  304  A    between atoms: _792  and  _793
REMARK  305  A    between atoms: _792  and  _795
REMARK  306  A    between atoms: _795  and  _796
REMARK  307  A    between atoms: _796  and  _797
REMARK  308  A    between atoms: _797  and  _798
REMARK  309  A    between atoms: _807  and  _809
REMARK  310  A    between atoms: _809  and  _810
REMARK                            x       y       z     vdW  Elec       q    Type
REMARK                         _______ _______ _______ _____ _____    ______ ____
ROOT
ATOM      1  O   HOH     1     -29.019 -17.568 -14.620  0.00  0.00    +0.000 OA
ENDROOT
TORSDOF 0
REMARK  Name = ../refined-set-2016/3rt4/3rt4_pocket.pdb
REMARK  310 active torsions:
REMARK  status: ('A' for Active; 'I' for Inactive)
REMARK    1  A    between atoms: _1  and  _3
REMARK    2  A    between atoms: _3  and  _4
REMARK    3  A    between atoms: _3  and  _6
REMARK    4  A    between atoms: _6  and  _7
REMARK    5  A    between atoms: _7  and  _8
REMARK    6  A    between atoms: _8  and  _9
REMARK    7  A    between atoms: _18  and  _20
REMARK    8  A    between atoms: _20  and  _21
REMARK    9  A    between atoms: _20  and  _23
REMARK   10  A    between atoms: _26  and  _28
REMARK   11  A    between atoms: _28  and  _29
REMARK   12  A    between atoms: _28  and  _31
REMARK   13  A    between atoms: _31  and  _32
REMARK   14  A    between atoms: _32  and  _33
REMARK   15  A    between atoms: _33  and  _34
REMARK   16  A    between atoms: _43  and  _45
REMARK   17  A    between atoms: _45  and  _46
REMARK   18  A    between atoms: _45  and  _48
REMARK   19  A    between atoms: _48  and  _49
REMARK   20  A    between atoms: _51  and  _53
REMARK   21  A    between atoms: _53  and  _54
REMARK   22  A    between atoms: _53  and  _56
REMARK   23  A    between atoms: _56  and  _57
REMARK   24  A    between atoms: _62  and  _64
REMARK   25  A    between atoms: _64  and  _65
REMARK   26  A    between atoms: _64  and  _67
REMARK   27  A    between atoms: _67  and  _68
REMARK   28  A    between atoms: _73  and  _74
REMARK   29  A    between atoms: _76  and  _78
REMARK   30  A    between atoms: _78  and  _79
REMARK   31  A    between atoms: _78  and  _81
REMARK   32  A    between atoms: _81  and  _82
REMARK   33  A    between atoms: _82  and  _83
REMARK   34  A    between atoms: _86  and  _88
REMARK   35  A    between atoms: _88  and  _89
REMARK   36  A    between atoms: _88  and  _91
REMARK   37  A    between atoms: _91  and  _92
REMARK   38  A    between atoms: _92  and  _93
REMARK   39  A    between atoms: _93  and  _94
REMARK   40  A    between atoms: _94  and  _95
REMARK   41  A    between atoms: _99  and  _101
REMARK   42  A    between atoms: _101  and  _102
REMARK   43  A    between atoms: _101  and  _104
REMARK   44  A    between atoms: _104  and  _105
REMARK   45  A    between atoms: _110  and  _111
REMARK   46  A    between atoms: _113  and  _115
REMARK   47  A    between atoms: _115  and  _116
REMARK   48  A    between atoms: _115  and  _118
REMARK   49  A    between atoms: _118  and  _119
REMARK   50  A    between atoms: _119  and  _120
REMARK   51  A    between atoms: _120  and  _121
REMARK   52  A    between atoms: _130  and  _132
REMARK   53  A    between atoms: _132  and  _133
REMARK   54  A    between atoms: _136  and  _138
REMARK   55  A    between atoms: _138  and  _139
REMARK   56  A    between atoms: _138  and  _141
REMARK   57  A    between atoms: _141  and  _142
REMARK   58  A    between atoms: _142  and  _258
REMARK   59  A    between atoms: _143  and  _145
REMARK   60  A    between atoms: _145  and  _146
REMARK   61  A    between atoms: _145  and  _148
REMARK   62  A    between atoms: _148  and  _149
REMARK   63  A    between atoms: _149  and  _150
REMARK   64  A    between atoms: _153  and  _155
REMARK   65  A    between atoms: _155  and  _156
REMARK   66  A    between atoms: _155  and  _158
REMARK   67  A    between atoms: _158  and  _159
REMARK   68  A    between atoms: _161  and  _163
REMARK   69  A    between atoms: _163  and  _164
REMARK   70  A    between atoms: _163  and  _166
REMARK   71  A    between atoms: _166  and  _167
REMARK   72  A    between atoms: _172  and  _173
REMARK   73  A    between atoms: _175  and  _177
REMARK   74  A    between atoms: _177  and  _178
REMARK   75  A    between atoms: _177  and  _180
REMARK   76  A    between atoms: _180  and  _181
REMARK   77  A    between atoms: _186  and  _188
REMARK   78  A    between atoms: _188  and  _189
REMARK   79  A    between atoms: _188  and  _191
REMARK   80  A    between atoms: _194  and  _196
REMARK   81  A    between atoms: _196  and  _197
REMARK   82  A    between atoms: _196  and  _199
REMARK   83  A    between atoms: _199  and  _200
REMARK   84  A    between atoms: _200  and  _201
REMARK   85  A    between atoms: _201  and  _202
REMARK   86  A    between atoms: _211  and  _213
REMARK   87  A    between atoms: _213  and  _214
REMARK   88  A    between atoms: _213  and  _216
REMARK   89  A    between atoms: _216  and  _217
REMARK   90  A    between atoms: _222  and  _224
REMARK   91  A    between atoms: _224  and  _225
REMARK   92  A    between atoms: _224  and  _227
REMARK   93  A    between atoms: _227  and  _228
REMARK   94  A    between atoms: _231  and  _233
REMARK   95  A    between atoms: _233  and  _234
REMARK   96  A    between atoms: _236  and  _238
REMARK   97  A    between atoms: _238  and  _239
REMARK   98  A    between atoms: _238  and  _241
REMARK   99  A    between atoms: _241  and  _242
REMARK  100  A    between atoms: _252  and  _254
REMARK  101  A    between atoms: _254  and  _255
REMARK  102  A    between atoms: _254  and  _257
REMARK  103  A    between atoms: _257  and  _258
REMARK  104  A    between atoms: _259  and  _261
REMARK  105  A    between atoms: _261  and  _262
REMARK  106  A    between atoms: _261  and  _264
REMARK  107  A    between atoms: _264  and  _265
REMARK  108  A    between atoms: _268  and  _270
REMARK  109  A    between atoms: _270  and  _271
REMARK  110  A    between atoms: _273  and  _275
REMARK  111  A    between atoms: _275  and  _276
REMARK  112  A    between atoms: _275  and  _278
REMARK  113  A    between atoms: _278  and  _279
REMARK  114  A    between atoms: _284  and  _285
REMARK  115  A    between atoms: _287  and  _289
REMARK  116  A    between atoms: _289  and  _290
REMARK  117  A    between atoms: _289  and  _292
REMARK  118  A    between atoms: _292  and  _293
REMARK  119  A    between atoms: _293  and  _294
REMARK  120  A    between atoms: _294  and  _295
REMARK  121  A    between atoms: _304  and  _306
REMARK  122  A    between atoms: _306  and  _307
REMARK  123  A    between atoms: _306  and  _309
REMARK  124  A    between atoms: _309  and  _310
REMARK  125  A    between atoms: _310  and  _311
REMARK  126  A    between atoms: _311  and  _312
REMARK  127  A    between atoms: _312  and  _313
REMARK  128  A    between atoms: _317  and  _319
REMARK  129  A    between atoms: _319  and  _320
REMARK  130  A    between atoms: _322  and  _324
REMARK  131  A    between atoms: _324  and  _325
REMARK  132  A    between atoms: _328  and  _330
REMARK  133  A    between atoms: _330  and  _331
REMARK  134  A    between atoms: _330  and  _333
REMARK  135  A    between atoms: _333  and  _334
REMARK  136  A    between atoms: _339  and  _341
REMARK  137  A    between atoms: _341  and  _342
REMARK  138  A    between atoms: _345  and  _347
REMARK  139  A    between atoms: _347  and  _348
REMARK  140  A    between atoms: _351  and  _352
REMARK  141  A    between atoms: _357  and  _359
REMARK  142  A    between atoms: _359  and  _360
REMARK  143  A    between atoms: _359  and  _362
REMARK  144  A    between atoms: _362  and  _363
REMARK  145  A    between atoms: _366  and  _368
REMARK  146  A    between atoms: _368  and  _369
REMARK  147  A    between atoms: _368  and  _371
REMARK  148  A    between atoms: _371  and  _372
REMARK  149  A    between atoms: _382  and  _384
REMARK  150  A    between atoms: _384  and  _385
REMARK  151  A    between atoms: _384  and  _387
REMARK  152  A    between atoms: _387  and  _388
REMARK  153  A    between atoms: _394  and  _395
REMARK  154  A    between atoms: _400  and  _402
REMARK  155  A    between atoms: _402  and  _403
REMARK  156  A    between atoms: _402  and  _405
REMARK  157  A    between atoms: _405  and  _406
REMARK  158  A    between atoms: _409  and  _411
REMARK  159  A    between atoms: _411  and  _412
REMARK  160  A    between atoms: _411  and  _414
REMARK  161  A    between atoms: _414  and  _415
REMARK  162  A    between atoms: _417  and  _419
REMARK  163  A    between atoms: _419  and  _420
REMARK  164  A    between atoms: _419  and  _422
REMARK  165  A    between atoms: _422  and  _423
REMARK  166  A    between atoms: _428  and  _430
REMARK  167  A    between atoms: _430  and  _431
REMARK  168  A    between atoms: _430  and  _433
REMARK  169  A    between atoms: _436  and  _438
REMARK  170  A    between atoms: _438  and  _439
REMARK  171  A    between atoms: _438  and  _441
REMARK  172  A    between atoms: _441  and  _442
REMARK  173  A    between atoms: _442  and  _443
REMARK  174  A    between atoms: _449  and  _450
REMARK  175  A    between atoms: _455  and  _457
REMARK  176  A    between atoms: _457  and  _458
REMARK  177  A    between atoms: _457  and  _460
REMARK  178  A    between atoms: _460  and  _461
REMARK  179  A    between atoms: _464  and  _466
REMARK  180  A    between atoms: _466  and  _467
REMARK  181  A    between atoms: _466  and  _469
REMARK  182  A    between atoms: _469  and  _470
REMARK  183  A    between atoms: _473  and  _475
REMARK  184  A    between atoms: _475  and  _476
REMARK  185  A    between atoms: _475  and  _478
REMARK  186  A    between atoms: _478  and  _479
REMARK  187  A    between atoms: _481  and  _483
REMARK  188  A    between atoms: _483  and  _484
REMARK  189  A    between atoms: _483  and  _486
REMARK  190  A    between atoms: _486  and  _487
REMARK  191  A    between atoms: _492  and  _493
REMARK  192  A    between atoms: _495  and  _497
REMARK  193  A    between atoms: _497  and  _498
REMARK  194  A    between atoms: _497  and  _500
REMARK  195  A    between atoms: _500  and  _501
REMARK  196  A    between atoms: _506  and  _508
REMARK  197  A    between atoms: _508  and  _509
REMARK  198  A    between atoms: _508  and  _511
REMARK  199  A    between atoms: _511  and  _512
REMARK  200  A    between atoms: _515  and  _517
REMARK  201  A    between atoms: _517  and  _518
REMARK  202  A    between atoms: _517  and  _520
REMARK  203  A    between atoms: _520  and  _521
REMARK  204  A    between atoms: _531  and  _533
REMARK  205  A    between atoms: _533  and  _534
REMARK  206  A    between atoms: _536  and  _538
REMARK  207  A    between atoms: _538  and  _539
REMARK  208  A    between atoms: _538  and  _541
REMARK  209  A    between atoms: _541  and  _542
REMARK  210  A    between atoms: _547  and  _548
REMARK  211  A    between atoms: _550  and  _552
REMARK  212  A    between atoms: _552  and  _553
REMARK  213  A    between atoms: _552  and  _555
REMARK  214  A    between atoms: _555  and  _556
REMARK  215  A    between atoms: _556  and  _557
REMARK  216  A    between atoms: _557  and  _558
REMARK  217  A    between atoms: _567  and  _569
REMARK  218  A    between atoms: _569  and  _570
REMARK  219  A    between atoms: _569  and  _572
REMARK  220  A    between atoms: _572  and  _573
REMARK  221  A    between atoms: _573  and  _574
REMARK  222  A    between atoms: _574  and  _575
REMARK  223  A    between atoms: _575  and  _576
REMARK  224  A    between atoms: _580  and  _582
REMARK  225  A    between atoms: _582  and  _583
REMARK  226  A    between atoms: _585  and  _587
REMARK  227  A    between atoms: _587  and  _588
REMARK  228  A    between atoms: _591  and  _593
REMARK  229  A    between atoms: _593  and  _594
REMARK  230  A    between atoms: _593  and  _596
REMARK  231  A    between atoms: _596  and  _597
REMARK  232  A    between atoms: _602  and  _604
REMARK  233  A    between atoms: _604  and  _605
REMARK  234  A    between atoms: _608  and  _610
REMARK  235  A    between atoms: _610  and  _611
REMARK  236  A    between atoms: _614  and  _615
REMARK  237  A    between atoms: _620  and  _622
REMARK  238  A    between atoms: _622  and  _623
REMARK  239  A    between atoms: _622  and  _625
REMARK  240  A    between atoms: _625  and  _626
REMARK  241  A    between atoms: _629  and  _631
REMARK  242  A    between atoms: _631  and  _632
REMARK  243  A    between atoms: _631  and  _634
REMARK  244  A    between atoms: _634  and  _635
REMARK  245  A    between atoms: _645  and  _647
REMARK  246  A    between atoms: _647  and  _648
REMARK  247  A    between atoms: _647  and  _650
REMARK  248  A    between atoms: _650  and  _651
REMARK  249  A    between atoms: _657  and  _658
REMARK  250  A    between atoms: _663  and  _665
REMARK  251  A    between atoms: _665  and  _666
REMARK  252  A    between atoms: _665  and  _668
REMARK  253  A    between atoms: _668  and  _669
REMARK  254  A    between atoms: _672  and  _674
REMARK  255  A    between atoms: _674  and  _675
REMARK  256  A    between atoms: _674  and  _677
REMARK  257  A    between atoms: _677  and  _678
REMARK  258  A    between atoms: _678  and  _679
REMARK  259  A    between atoms: _682  and  _684
REMARK  260  A    between atoms: _684  and  _685
REMARK  261  A    between atoms: _684  and  _687
REMARK  262  A    between atoms: _687  and  _688
REMARK  263  A    between atoms: _688  and  _689
REMARK  264  A    between atoms: _689  and  _690
REMARK  265  A    between atoms: _690  and  _691
REMARK  266  A    between atoms: _695  and  _697
REMARK  267  A    between atoms: _697  and  _698
REMARK  268  A    between atoms: _700  and  _702
REMARK  269  A    between atoms: _702  and  _703
REMARK  270  A    between atoms: _702  and  _705
REMARK  271  A    between atoms: _705  and  _706
REMARK  272  A    between atoms: _711  and  _713
REMARK  273  A    between atoms: _713  and  _714
REMARK  274  A    between atoms: _713  and  _716
REMARK  275  A    between atoms: _716  and  _717
REMARK  276  A    between atoms: _717  and  _718
REMARK  277  A    between atoms: _718  and  _719
REMARK  278  A    between atoms: _728  and  _730
REMARK  279  A    between atoms: _730  and  _731
REMARK  280  A    between atoms: _730  and  _733
REMARK  281  A    between atoms: _733  and  _734
REMARK  282  A    between atoms: _737  and  _739
REMARK  283  A    between atoms: _739  and  _740
REMARK  284  A    between atoms: _739  and  _742
REMARK  285  A    between atoms: _745  and  _747
REMARK  286  A    between atoms: _747  and  _748
REMARK  287  A    between atoms: _747  and  _750
REMARK  288  A    between atoms: _750  and  _751
REMARK  289  A    between atoms: _751  and  _752
REMARK  290  A    between atoms: _758  and  _759
REMARK  291  A    between atoms: _764  and  _766
REMARK  292  A    between atoms: _766  and  _767
REMARK  293  A    between atoms: _766  and  _769
REMARK  294  A    between atoms: _769  and  _770
REMARK  295  A    between atoms: _773  and  _775
REMARK  296  A    between atoms: _775  and  _776
REMARK  297  A    between atoms: _775  and  _778
REMARK  298  A    between atoms: _778  and  _779
REMARK  299  A    between atoms: _782  and  _784
REMARK  300  A    between atoms: _784  and  _785
REMARK  301  A    between atoms: _784  and  _787
REMARK  302  A    between atoms: _787  and  _788
REMARK  303  A    between atoms: _790  and  _792
REMARK  304  A    between atoms: _792  and  _793
REMARK  305  A    between atoms: _792  and  _795
REMARK  306  A    between atoms: _795  and  _796
REMARK  307  A    between atoms: _796  and  _797
REMARK  308  A    between atoms: _797  and  _798
REMARK  309  A    between atoms: _807  and  _809
REMARK  310  A    between atoms: _809  and  _810
REMARK                            x       y       z     vdW  Elec       q    Type
REMARK                         _______ _______ _______ _____ _____    ______ ____
ROOT
ATOM      1  O   HOH     1     -22.292 -22.646 -26.918  0.00  0.00    +0.000 OA
ENDROOT
TORSDOF 0
REMARK  Name = ../refined-set-2016/3rt4/3rt4_pocket.pdb
REMARK  310 active torsions:
REMARK  status: ('A' for Active; 'I' for Inactive)
REMARK    1  A    between atoms: _1  and  _3
REMARK    2  A    between atoms: _3  and  _4
REMARK    3  A    between atoms: _3  and  _6
REMARK    4  A    between atoms: _6  and  _7
REMARK    5  A    between atoms: _7  and  _8
REMARK    6  A    between atoms: _8  and  _9
REMARK    7  A    between atoms: _18  and  _20
REMARK    8  A    between atoms: _20  and  _21
REMARK    9  A    between atoms: _20  and  _23
REMARK   10  A    between atoms: _26  and  _28
REMARK   11  A    between atoms: _28  and  _29
REMARK   12  A    between atoms: _28  and  _31
REMARK   13  A    between atoms: _31  and  _32
REMARK   14  A    between atoms: _32  and  _33
REMARK   15  A    between atoms: _33  and  _34
REMARK   16  A    between atoms: _43  and  _45
REMARK   17  A    between atoms: _45  and  _46
REMARK   18  A    between atoms: _45  and  _48
REMARK   19  A    between atoms: _48  and  _49
REMARK   20  A    between atoms: _51  and  _53
REMARK   21  A    between atoms: _53  and  _54
REMARK   22  A    between atoms: _53  and  _56
REMARK   23  A    between atoms: _56  and  _57
REMARK   24  A    between atoms: _62  and  _64
REMARK   25  A    between atoms: _64  and  _65
REMARK   26  A    between atoms: _64  and  _67
REMARK   27  A    between atoms: _67  and  _68
REMARK   28  A    between atoms: _73  and  _74
REMARK   29  A    between atoms: _76  and  _78
REMARK   30  A    between atoms: _78  and  _79
REMARK   31  A    between atoms: _78  and  _81
REMARK   32  A    between atoms: _81  and  _82
REMARK   33  A    between atoms: _82  and  _83
REMARK   34  A    between atoms: _86  and  _88
REMARK   35  A    between atoms: _88  and  _89
REMARK   36  A    between atoms: _88  and  _91
REMARK   37  A    between atoms: _91  and  _92
REMARK   38  A    between atoms: _92  and  _93
REMARK   39  A    between atoms: _93  and  _94
REMARK   40  A    between atoms: _94  and  _95
REMARK   41  A    between atoms: _99  and  _101
REMARK   42  A    between atoms: _101  and  _102
REMARK   43  A    between atoms: _101  and  _104
REMARK   44  A    between atoms: _104  and  _105
REMARK   45  A    between atoms: _110  and  _111
REMARK   46  A    between atoms: _113  and  _115
REMARK   47  A    between atoms: _115  and  _116
REMARK   48  A    between atoms: _115  and  _118
REMARK   49  A    between atoms: _118  and  _119
REMARK   50  A    between atoms: _119  and  _120
REMARK   51  A    between atoms: _120  and  _121
REMARK   52  A    between atoms: _130  and  _132
REMARK   53  A    between atoms: _132  and  _133
REMARK   54  A    between atoms: _136  and  _138
REMARK   55  A    between atoms: _138  and  _139
REMARK   56  A    between atoms: _138  and  _141
REMARK   57  A    between atoms: _141  and  _142
REMARK   58  A    between atoms: _142  and  _258
REMARK   59  A    between atoms: _143  and  _145
REMARK   60  A    between atoms: _145  and  _146
REMARK   61  A    between atoms: _145  and  _148
REMARK   62  A    between atoms: _148  and  _149
REMARK   63  A    between atoms: _149  and  _150
REMARK   64  A    between atoms: _153  and  _155
REMARK   65  A    between atoms: _155  and  _156
REMARK   66  A    between atoms: _155  and  _158
REMARK   67  A    between atoms: _158  and  _159
REMARK   68  A    between atoms: _161  and  _163
REMARK   69  A    between atoms: _163  and  _164
REMARK   70  A    between atoms: _163  and  _166
REMARK   71  A    between atoms: _166  and  _167
REMARK   72  A    between atoms: _172  and  _173
REMARK   73  A    between atoms: _175  and  _177
REMARK   74  A    between atoms: _177  and  _178
REMARK   75  A    between atoms: _177  and  _180
REMARK   76  A    between atoms: _180  and  _181
REMARK   77  A    between atoms: _186  and  _188
REMARK   78  A    between atoms: _188  and  _189
REMARK   79  A    between atoms: _188  and  _191
REMARK   80  A    between atoms: _194  and  _196
REMARK   81  A    between atoms: _196  and  _197
REMARK   82  A    between atoms: _196  and  _199
REMARK   83  A    between atoms: _199  and  _200
REMARK   84  A    between atoms: _200  and  _201
REMARK   85  A    between atoms: _201  and  _202
REMARK   86  A    between atoms: _211  and  _213
REMARK   87  A    between atoms: _213  and  _214
REMARK   88  A    between atoms: _213  and  _216
REMARK   89  A    between atoms: _216  and  _217
REMARK   90  A    between atoms: _222  and  _224
REMARK   91  A    between atoms: _224  and  _225
REMARK   92  A    between atoms: _224  and  _227
REMARK   93  A    between atoms: _227  and  _228
REMARK   94  A    between atoms: _231  and  _233
REMARK   95  A    between atoms: _233  and  _234
REMARK   96  A    between atoms: _236  and  _238
REMARK   97  A    between atoms: _238  and  _239
REMARK   98  A    between atoms: _238  and  _241
REMARK   99  A    between atoms: _241  and  _242
REMARK  100  A    between atoms: _252  and  _254
REMARK  101  A    between atoms: _254  and  _255
REMARK  102  A    between atoms: _254  and  _257
REMARK  103  A    between atoms: _257  and  _258
REMARK  104  A    between atoms: _259  and  _261
REMARK  105  A    between atoms: _261  and  _262
REMARK  106  A    between atoms: _261  and  _264
REMARK  107  A    between atoms: _264  and  _265
REMARK  108  A    between atoms: _268  and  _270
REMARK  109  A    between atoms: _270  and  _271
REMARK  110  A    between atoms: _273  and  _275
REMARK  111  A    between atoms: _275  and  _276
REMARK  112  A    between atoms: _275  and  _278
REMARK  113  A    between atoms: _278  and  _279
REMARK  114  A    between atoms: _284  and  _285
REMARK  115  A    between atoms: _287  and  _289
REMARK  116  A    between atoms: _289  and  _290
REMARK  117  A    between atoms: _289  and  _292
REMARK  118  A    between atoms: _292  and  _293
REMARK  119  A    between atoms: _293  and  _294
REMARK  120  A    between atoms: _294  and  _295
REMARK  121  A    between atoms: _304  and  _306
REMARK  122  A    between atoms: _306  and  _307
REMARK  123  A    between atoms: _306  and  _309
REMARK  124  A    between atoms: _309  and  _310
REMARK  125  A    between atoms: _310  and  _311
REMARK  126  A    between atoms: _311  and  _312
REMARK  127  A    between atoms: _312  and  _313
REMARK  128  A    between atoms: _317  and  _319
REMARK  129  A    between atoms: _319  and  _320
REMARK  130  A    between atoms: _322  and  _324
REMARK  131  A    between atoms: _324  and  _325
REMARK  132  A    between atoms: _328  and  _330
REMARK  133  A    between atoms: _330  and  _331
REMARK  134  A    between atoms: _330  and  _333
REMARK  135  A    between atoms: _333  and  _334
REMARK  136  A    between atoms: _339  and  _341
REMARK  137  A    between atoms: _341  and  _342
REMARK  138  A    between atoms: _345  and  _347
REMARK  139  A    between atoms: _347  and  _348
REMARK  140  A    between atoms: _351  and  _352
REMARK  141  A    between atoms: _357  and  _359
REMARK  142  A    between atoms: _359  and  _360
REMARK  143  A    between atoms: _359  and  _362
REMARK  144  A    between atoms: _362  and  _363
REMARK  145  A    between atoms: _366  and  _368
REMARK  146  A    between atoms: _368  and  _369
REMARK  147  A    between atoms: _368  and  _371
REMARK  148  A    between atoms: _371  and  _372
REMARK  149  A    between atoms: _382  and  _384
REMARK  150  A    between atoms: _384  and  _385
REMARK  151  A    between atoms: _384  and  _387
REMARK  152  A    between atoms: _387  and  _388
REMARK  153  A    between atoms: _394  and  _395
REMARK  154  A    between atoms: _400  and  _402
REMARK  155  A    between atoms: _402  and  _403
REMARK  156  A    between atoms: _402  and  _405
REMARK  157  A    between atoms: _405  and  _406
REMARK  158  A    between atoms: _409  and  _411
REMARK  159  A    between atoms: _411  and  _412
REMARK  160  A    between atoms: _411  and  _414
REMARK  161  A    between atoms: _414  and  _415
REMARK  162  A    between atoms: _417  and  _419
REMARK  163  A    between atoms: _419  and  _420
REMARK  164  A    between atoms: _419  and  _422
REMARK  165  A    between atoms: _422  and  _423
REMARK  166  A    between atoms: _428  and  _430
REMARK  167  A    between atoms: _430  and  _431
REMARK  168  A    between atoms: _430  and  _433
REMARK  169  A    between atoms: _436  and  _438
REMARK  170  A    between atoms: _438  and  _439
REMARK  171  A    between atoms: _438  and  _441
REMARK  172  A    between atoms: _441  and  _442
REMARK  173  A    between atoms: _442  and  _443
REMARK  174  A    between atoms: _449  and  _450
REMARK  175  A    between atoms: _455  and  _457
REMARK  176  A    between atoms: _457  and  _458
REMARK  177  A    between atoms: _457  and  _460
REMARK  178  A    between atoms: _460  and  _461
REMARK  179  A    between atoms: _464  and  _466
REMARK  180  A    between atoms: _466  and  _467
REMARK  181  A    between atoms: _466  and  _469
REMARK  182  A    between atoms: _469  and  _470
REMARK  183  A    between atoms: _473  and  _475
REMARK  184  A    between atoms: _475  and  _476
REMARK  185  A    between atoms: _475  and  _478
REMARK  186  A    between atoms: _478  and  _479
REMARK  187  A    between atoms: _481  and  _483
REMARK  188  A    between atoms: _483  and  _484
REMARK  189  A    between atoms: _483  and  _486
REMARK  190  A    between atoms: _486  and  _487
REMARK  191  A    between atoms: _492  and  _493
REMARK  192  A    between atoms: _495  and  _497
REMARK  193  A    between atoms: _497  and  _498
REMARK  194  A    between atoms: _497  and  _500
REMARK  195  A    between atoms: _500  and  _501
REMARK  196  A    between atoms: _506  and  _508
REMARK  197  A    between atoms: _508  and  _509
REMARK  198  A    between atoms: _508  and  _511
REMARK  199  A    between atoms: _511  and  _512
REMARK  200  A    between atoms: _515  and  _517
REMARK  201  A    between atoms: _517  and  _518
REMARK  202  A    between atoms: _517  and  _520
REMARK  203  A    between atoms: _520  and  _521
REMARK  204  A    between atoms: _531  and  _533
REMARK  205  A    between atoms: _533  and  _534
REMARK  206  A    between atoms: _536  and  _538
REMARK  207  A    between atoms: _538  and  _539
REMARK  208  A    between atoms: _538  and  _541
REMARK  209  A    between atoms: _541  and  _542
REMARK  210  A    between atoms: _547  and  _548
REMARK  211  A    between atoms: _550  and  _552
REMARK  212  A    between atoms: _552  and  _553
REMARK  213  A    between atoms: _552  and  _555
REMARK  214  A    between atoms: _555  and  _556
REMARK  215  A    between atoms: _556  and  _557
REMARK  216  A    between atoms: _557  and  _558
REMARK  217  A    between atoms: _567  and  _569
REMARK  218  A    between atoms: _569  and  _570
REMARK  219  A    between atoms: _569  and  _572
REMARK  220  A    between atoms: _572  and  _573
REMARK  221  A    between atoms: _573  and  _574
REMARK  222  A    between atoms: _574  and  _575
REMARK  223  A    between atoms: _575  and  _576
REMARK  224  A    between atoms: _580  and  _582
REMARK  225  A    between atoms: _582  and  _583
REMARK  226  A    between atoms: _585  and  _587
REMARK  227  A    between atoms: _587  and  _588
REMARK  228  A    between atoms: _591  and  _593
REMARK  229  A    between atoms: _593  and  _594
REMARK  230  A    between atoms: _593  and  _596
REMARK  231  A    between atoms: _596  and  _597
REMARK  232  A    between atoms: _602  and  _604
REMARK  233  A    between atoms: _604  and  _605
REMARK  234  A    between atoms: _608  and  _610
REMARK  235  A    between atoms: _610  and  _611
REMARK  236  A    between atoms: _614  and  _615
REMARK  237  A    between atoms: _620  and  _622
REMARK  238  A    between atoms: _622  and  _623
REMARK  239  A    between atoms: _622  and  _625
REMARK  240  A    between atoms: _625  and  _626
REMARK  241  A    between atoms: _629  and  _631
REMARK  242  A    between atoms: _631  and  _632
REMARK  243  A    between atoms: _631  and  _634
REMARK  244  A    between atoms: _634  and  _635
REMARK  245  A    between atoms: _645  and  _647
REMARK  246  A    between atoms: _647  and  _648
REMARK  247  A    between atoms: _647  and  _650
REMARK  248  A    between atoms: _650  and  _651
REMARK  249  A    between atoms: _657  and  _658
REMARK  250  A    between atoms: _663  and  _665
REMARK  251  A    between atoms: _665  and  _666
REMARK  252  A    between atoms: _665  and  _668
REMARK  253  A    between atoms: _668  and  _669
REMARK  254  A    between atoms: _672  and  _674
REMARK  255  A    between atoms: _674  and  _675
REMARK  256  A    between atoms: _674  and  _677
REMARK  257  A    between atoms: _677  and  _678
REMARK  258  A    between atoms: _678  and  _679
REMARK  259  A    between atoms: _682  and  _684
REMARK  260  A    between atoms: _684  and  _685
REMARK  261  A    between atoms: _684  and  _687
REMARK  262  A    between atoms: _687  and  _688
REMARK  263  A    between atoms: _688  and  _689
REMARK  264  A    between atoms: _689  and  _690
REMARK  265  A    between atoms: _690  and  _691
REMARK  266  A    between atoms: _695  and  _697
REMARK  267  A    between atoms: _697  and  _698
REMARK  268  A    between atoms: _700  and  _702
REMARK  269  A    between atoms: _702  and  _703
REMARK  270  A    between atoms: _702  and  _705
REMARK  271  A    between atoms: _705  and  _706
REMARK  272  A    between atoms: _711  and  _713
REMARK  273  A    between atoms: _713  and  _714
REMARK  274  A    between atoms: _713  and  _716
REMARK  275  A    between atoms: _716  and  _717
REMARK  276  A    between atoms: _717  and  _718
REMARK  277  A    between atoms: _718  and  _719
REMARK  278  A    between atoms: _728  and  _730
REMARK  279  A    between atoms: _730  and  _731
REMARK  280  A    between atoms: _730  and  _733
REMARK  281  A    between atoms: _733  and  _734
REMARK  282  A    between atoms: _737  and  _739
REMARK  283  A    between atoms: _739  and  _740
REMARK  284  A    between atoms: _739  and  _742
REMARK  285  A    between atoms: _745  and  _747
REMARK  286  A    between atoms: _747  and  _748
REMARK  287  A    between atoms: _747  and  _750
REMARK  288  A    between atoms: _750  and  _751
REMARK  289  A    between atoms: _751  and  _752
REMARK  290  A    between atoms: _758  and  _759
REMARK  291  A    between atoms: _764  and  _766
REMARK  292  A    between atoms: _766  and  _767
REMARK  293  A    between atoms: _766  and  _769
REMARK  294  A    between atoms: _769  and  _770
REMARK  295  A    between atoms: _773  and  _775
REMARK  296  A    between atoms: _775  and  _776
REMARK  297  A    between atoms: _775  and  _778
REMARK  298  A    between atoms: _778  and  _779
REMARK  299  A    between atoms: _782  and  _784
REMARK  300  A    between atoms: _784  and  _785
REMARK  301  A    between atoms: _784  and  _787
REMARK  302  A    between atoms: _787  and  _788
REMARK  303  A    between atoms: _790  and  _792
REMARK  304  A    between atoms: _792  and  _793
REMARK  305  A    between atoms: _792  and  _795
REMARK  306  A    between atoms: _795  and  _796
REMARK  307  A    between atoms: _796  and  _797
REMARK  308  A    between atoms: _797  and  _798
REMARK  309  A    between atoms: _807  and  _809
REMARK  310  A    between atoms: _809  and  _810
REMARK                            x       y       z     vdW  Elec       q    Type
REMARK                         _______ _______ _______ _____ _____    ______ ____
ROOT
ATOM      1  O   HOH     1     -26.681 -23.459 -29.397  0.00  0.00    +0.000 OA
ENDROOT
TORSDOF 0
REMARK  Name = ../refined-set-2016/3rt4/3rt4_pocket.pdb
REMARK  310 active torsions:
REMARK  status: ('A' for Active; 'I' for Inactive)
REMARK    1  A    between atoms: _1  and  _3
REMARK    2  A    between atoms: _3  and  _4
REMARK    3  A    between atoms: _3  and  _6
REMARK    4  A    between atoms: _6  and  _7
REMARK    5  A    between atoms: _7  and  _8
REMARK    6  A    between atoms: _8  and  _9
REMARK    7  A    between atoms: _18  and  _20
REMARK    8  A    between atoms: _20  and  _21
REMARK    9  A    between atoms: _20  and  _23
REMARK   10  A    between atoms: _26  and  _28
REMARK   11  A    between atoms: _28  and  _29
REMARK   12  A    between atoms: _28  and  _31
REMARK   13  A    between atoms: _31  and  _32
REMARK   14  A    between atoms: _32  and  _33
REMARK   15  A    between atoms: _33  and  _34
REMARK   16  A    between atoms: _43  and  _45
REMARK   17  A    between atoms: _45  and  _46
REMARK   18  A    between atoms: _45  and  _48
REMARK   19  A    between atoms: _48  and  _49
REMARK   20  A    between atoms: _51  and  _53
REMARK   21  A    between atoms: _53  and  _54
REMARK   22  A    between atoms: _53  and  _56
REMARK   23  A    between atoms: _56  and  _57
REMARK   24  A    between atoms: _62  and  _64
REMARK   25  A    between atoms: _64  and  _65
REMARK   26  A    between atoms: _64  and  _67
REMARK   27  A    between atoms: _67  and  _68
REMARK   28  A    between atoms: _73  and  _74
REMARK   29  A    between atoms: _76  and  _78
REMARK   30  A    between atoms: _78  and  _79
REMARK   31  A    between atoms: _78  and  _81
REMARK   32  A    between atoms: _81  and  _82
REMARK   33  A    between atoms: _82  and  _83
REMARK   34  A    between atoms: _86  and  _88
REMARK   35  A    between atoms: _88  and  _89
REMARK   36  A    between atoms: _88  and  _91
REMARK   37  A    between atoms: _91  and  _92
REMARK   38  A    between atoms: _92  and  _93
REMARK   39  A    between atoms: _93  and  _94
REMARK   40  A    between atoms: _94  and  _95
REMARK   41  A    between atoms: _99  and  _101
REMARK   42  A    between atoms: _101  and  _102
REMARK   43  A    between atoms: _101  and  _104
REMARK   44  A    between atoms: _104  and  _105
REMARK   45  A    between atoms: _110  and  _111
REMARK   46  A    between atoms: _113  and  _115
REMARK   47  A    between atoms: _115  and  _116
REMARK   48  A    between atoms: _115  and  _118
REMARK   49  A    between atoms: _118  and  _119
REMARK   50  A    between atoms: _119  and  _120
REMARK   51  A    between atoms: _120  and  _121
REMARK   52  A    between atoms: _130  and  _132
REMARK   53  A    between atoms: _132  and  _133
REMARK   54  A    between atoms: _136  and  _138
REMARK   55  A    between atoms: _138  and  _139
REMARK   56  A    between atoms: _138  and  _141
REMARK   57  A    between atoms: _141  and  _142
REMARK   58  A    between atoms: _142  and  _258
REMARK   59  A    between atoms: _143  and  _145
REMARK   60  A    between atoms: _145  and  _146
REMARK   61  A    between atoms: _145  and  _148
REMARK   62  A    between atoms: _148  and  _149
REMARK   63  A    between atoms: _149  and  _150
REMARK   64  A    between atoms: _153  and  _155
REMARK   65  A    between atoms: _155  and  _156
REMARK   66  A    between atoms: _155  and  _158
REMARK   67  A    between atoms: _158  and  _159
REMARK   68  A    between atoms: _161  and  _163
REMARK   69  A    between atoms: _163  and  _164
REMARK   70  A    between atoms: _163  and  _166
REMARK   71  A    between atoms: _166  and  _167
REMARK   72  A    between atoms: _172  and  _173
REMARK   73  A    between atoms: _175  and  _177
REMARK   74  A    between atoms: _177  and  _178
REMARK   75  A    between atoms: _177  and  _180
REMARK   76  A    between atoms: _180  and  _181
REMARK   77  A    between atoms: _186  and  _188
REMARK   78  A    between atoms: _188  and  _189
REMARK   79  A    between atoms: _188  and  _191
REMARK   80  A    between atoms: _194  and  _196
REMARK   81  A    between atoms: _196  and  _197
REMARK   82  A    between atoms: _196  and  _199
REMARK   83  A    between atoms: _199  and  _200
REMARK   84  A    between atoms: _200  and  _201
REMARK   85  A    between atoms: _201  and  _202
REMARK   86  A    between atoms: _211  and  _213
REMARK   87  A    between atoms: _213  and  _214
REMARK   88  A    between atoms: _213  and  _216
REMARK   89  A    between atoms: _216  and  _217
REMARK   90  A    between atoms: _222  and  _224
REMARK   91  A    between atoms: _224  and  _225
REMARK   92  A    between atoms: _224  and  _227
REMARK   93  A    between atoms: _227  and  _228
REMARK   94  A    between atoms: _231  and  _233
REMARK   95  A    between atoms: _233  and  _234
REMARK   96  A    between atoms: _236  and  _238
REMARK   97  A    between atoms: _238  and  _239
REMARK   98  A    between atoms: _238  and  _241
REMARK   99  A    between atoms: _241  and  _242
REMARK  100  A    between atoms: _252  and  _254
REMARK  101  A    between atoms: _254  and  _255
REMARK  102  A    between atoms: _254  and  _257
REMARK  103  A    between atoms: _257  and  _258
REMARK  104  A    between atoms: _259  and  _261
REMARK  105  A    between atoms: _261  and  _262
REMARK  106  A    between atoms: _261  and  _264
REMARK  107  A    between atoms: _264  and  _265
REMARK  108  A    between atoms: _268  and  _270
REMARK  109  A    between atoms: _270  and  _271
REMARK  110  A    between atoms: _273  and  _275
REMARK  111  A    between atoms: _275  and  _276
REMARK  112  A    between atoms: _275  and  _278
REMARK  113  A    between atoms: _278  and  _279
REMARK  114  A    between atoms: _284  and  _285
REMARK  115  A    between atoms: _287  and  _289
REMARK  116  A    between atoms: _289  and  _290
REMARK  117  A    between atoms: _289  and  _292
REMARK  118  A    between atoms: _292  and  _293
REMARK  119  A    between atoms: _293  and  _294
REMARK  120  A    between atoms: _294  and  _295
REMARK  121  A    between atoms: _304  and  _306
REMARK  122  A    between atoms: _306  and  _307
REMARK  123  A    between atoms: _306  and  _309
REMARK  124  A    between atoms: _309  and  _310
REMARK  125  A    between atoms: _310  and  _311
REMARK  126  A    between atoms: _311  and  _312
REMARK  127  A    between atoms: _312  and  _313
REMARK  128  A    between atoms: _317  and  _319
REMARK  129  A    between atoms: _319  and  _320
REMARK  130  A    between atoms: _322  and  _324
REMARK  131  A    between atoms: _324  and  _325
REMARK  132  A    between atoms: _328  and  _330
REMARK  133  A    between atoms: _330  and  _331
REMARK  134  A    between atoms: _330  and  _333
REMARK  135  A    between atoms: _333  and  _334
REMARK  136  A    between atoms: _339  and  _341
REMARK  137  A    between atoms: _341  and  _342
REMARK  138  A    between atoms: _345  and  _347
REMARK  139  A    between atoms: _347  and  _348
REMARK  140  A    between atoms: _351  and  _352
REMARK  141  A    between atoms: _357  and  _359
REMARK  142  A    between atoms: _359  and  _360
REMARK  143  A    between atoms: _359  and  _362
REMARK  144  A    between atoms: _362  and  _363
REMARK  145  A    between atoms: _366  and  _368
REMARK  146  A    between atoms: _368  and  _369
REMARK  147  A    between atoms: _368  and  _371
REMARK  148  A    between atoms: _371  and  _372
REMARK  149  A    between atoms: _382  and  _384
REMARK  150  A    between atoms: _384  and  _385
REMARK  151  A    between atoms: _384  and  _387
REMARK  152  A    between atoms: _387  and  _388
REMARK  153  A    between atoms: _394  and  _395
REMARK  154  A    between atoms: _400  and  _402
REMARK  155  A    between atoms: _402  and  _403
REMARK  156  A    between atoms: _402  and  _405
REMARK  157  A    between atoms: _405  and  _406
REMARK  158  A    between atoms: _409  and  _411
REMARK  159  A    between atoms: _411  and  _412
REMARK  160  A    between atoms: _411  and  _414
REMARK  161  A    between atoms: _414  and  _415
REMARK  162  A    between atoms: _417  and  _419
REMARK  163  A    between atoms: _419  and  _420
REMARK  164  A    between atoms: _419  and  _422
REMARK  165  A    between atoms: _422  and  _423
REMARK  166  A    between atoms: _428  and  _430
REMARK  167  A    between atoms: _430  and  _431
REMARK  168  A    between atoms: _430  and  _433
REMARK  169  A    between atoms: _436  and  _438
REMARK  170  A    between atoms: _438  and  _439
REMARK  171  A    between atoms: _438  and  _441
REMARK  172  A    between atoms: _441  and  _442
REMARK  173  A    between atoms: _442  and  _443
REMARK  174  A    between atoms: _449  and  _450
REMARK  175  A    between atoms: _455  and  _457
REMARK  176  A    between atoms: _457  and  _458
REMARK  177  A    between atoms: _457  and  _460
REMARK  178  A    between atoms: _460  and  _461
REMARK  179  A    between atoms: _464  and  _466
REMARK  180  A    between atoms: _466  and  _467
REMARK  181  A    between atoms: _466  and  _469
REMARK  182  A    between atoms: _469  and  _470
REMARK  183  A    between atoms: _473  and  _475
REMARK  184  A    between atoms: _475  and  _476
REMARK  185  A    between atoms: _475  and  _478
REMARK  186  A    between atoms: _478  and  _479
REMARK  187  A    between atoms: _481  and  _483
REMARK  188  A    between atoms: _483  and  _484
REMARK  189  A    between atoms: _483  and  _486
REMARK  190  A    between atoms: _486  and  _487
REMARK  191  A    between atoms: _492  and  _493
REMARK  192  A    between atoms: _495  and  _497
REMARK  193  A    between atoms: _497  and  _498
REMARK  194  A    between atoms: _497  and  _500
REMARK  195  A    between atoms: _500  and  _501
REMARK  196  A    between atoms: _506  and  _508
REMARK  197  A    between atoms: _508  and  _509
REMARK  198  A    between atoms: _508  and  _511
REMARK  199  A    between atoms: _511  and  _512
REMARK  200  A    between atoms: _515  and  _517
REMARK  201  A    between atoms: _517  and  _518
REMARK  202  A    between atoms: _517  and  _520
REMARK  203  A    between atoms: _520  and  _521
REMARK  204  A    between atoms: _531  and  _533
REMARK  205  A    between atoms: _533  and  _534
REMARK  206  A    between atoms: _536  and  _538
REMARK  207  A    between atoms: _538  and  _539
REMARK  208  A    between atoms: _538  and  _541
REMARK  209  A    between atoms: _541  and  _542
REMARK  210  A    between atoms: _547  and  _548
REMARK  211  A    between atoms: _550  and  _552
REMARK  212  A    between atoms: _552  and  _553
REMARK  213  A    between atoms: _552  and  _555
REMARK  214  A    between atoms: _555  and  _556
REMARK  215  A    between atoms: _556  and  _557
REMARK  216  A    between atoms: _557  and  _558
REMARK  217  A    between atoms: _567  and  _569
REMARK  218  A    between atoms: _569  and  _570
REMARK  219  A    between atoms: _569  and  _572
REMARK  220  A    between atoms: _572  and  _573
REMARK  221  A    between atoms: _573  and  _574
REMARK  222  A    between atoms: _574  and  _575
REMARK  223  A    between atoms: _575  and  _576
REMARK  224  A    between atoms: _580  and  _582
REMARK  225  A    between atoms: _582  and  _583
REMARK  226  A    between atoms: _585  and  _587
REMARK  227  A    between atoms: _587  and  _588
REMARK  228  A    between atoms: _591  and  _593
REMARK  229  A    between atoms: _593  and  _594
REMARK  230  A    between atoms: _593  and  _596
REMARK  231  A    between atoms: _596  and  _597
REMARK  232  A    between atoms: _602  and  _604
REMARK  233  A    between atoms: _604  and  _605
REMARK  234  A    between atoms: _608  and  _610
REMARK  235  A    between atoms: _610  and  _611
REMARK  236  A    between atoms: _614  and  _615
REMARK  237  A    between atoms: _620  and  _622
REMARK  238  A    between atoms: _622  and  _623
REMARK  239  A    between atoms: _622  and  _625
REMARK  240  A    between atoms: _625  and  _626
REMARK  241  A    between atoms: _629  and  _631
REMARK  242  A    between atoms: _631  and  _632
REMARK  243  A    between atoms: _631  and  _634
REMARK  244  A    between atoms: _634  and  _635
REMARK  245  A    between atoms: _645  and  _647
REMARK  246  A    between atoms: _647  and  _648
REMARK  247  A    between atoms: _647  and  _650
REMARK  248  A    between atoms: _650  and  _651
REMARK  249  A    between atoms: _657  and  _658
REMARK  250  A    between atoms: _663  and  _665
REMARK  251  A    between atoms: _665  and  _666
REMARK  252  A    between atoms: _665  and  _668
REMARK  253  A    between atoms: _668  and  _669
REMARK  254  A    between atoms: _672  and  _674
REMARK  255  A    between atoms: _674  and  _675
REMARK  256  A    between atoms: _674  and  _677
REMARK  257  A    between atoms: _677  and  _678
REMARK  258  A    between atoms: _678  and  _679
REMARK  259  A    between atoms: _682  and  _684
REMARK  260  A    between atoms: _684  and  _685
REMARK  261  A    between atoms: _684  and  _687
REMARK  262  A    between atoms: _687  and  _688
REMARK  263  A    between atoms: _688  and  _689
REMARK  264  A    between atoms: _689  and  _690
REMARK  265  A    between atoms: _690  and  _691
REMARK  266  A    between atoms: _695  and  _697
REMARK  267  A    between atoms: _697  and  _698
REMARK  268  A    between atoms: _700  and  _702
REMARK  269  A    between atoms: _702  and  _703
REMARK  270  A    between atoms: _702  and  _705
REMARK  271  A    between atoms: _705  and  _706
REMARK  272  A    between atoms: _711  and  _713
REMARK  273  A    between atoms: _713  and  _714
REMARK  274  A    between atoms: _713  and  _716
REMARK  275  A    between atoms: _716  and  _717
REMARK  276  A    between atoms: _717  and  _718
REMARK  277  A    between atoms: _718  and  _719
REMARK  278  A    between atoms: _728  and  _730
REMARK  279  A    between atoms: _730  and  _731
REMARK  280  A    between atoms: _730  and  _733
REMARK  281  A    between atoms: _733  and  _734
REMARK  282  A    between atoms: _737  and  _739
REMARK  283  A    between atoms: _739  and  _740
REMARK  284  A    between atoms: _739  and  _742
REMARK  285  A    between atoms: _745  and  _747
REMARK  286  A    between atoms: _747  and  _748
REMARK  287  A    between atoms: _747  and  _750
REMARK  288  A    between atoms: _750  and  _751
REMARK  289  A    between atoms: _751  and  _752
REMARK  290  A    between atoms: _758  and  _759
REMARK  291  A    between atoms: _764  and  _766
REMARK  292  A    between atoms: _766  and  _767
REMARK  293  A    between atoms: _766  and  _769
REMARK  294  A    between atoms: _769  and  _770
REMARK  295  A    between atoms: _773  and  _775
REMARK  296  A    between atoms: _775  and  _776
REMARK  297  A    between atoms: _775  and  _778
REMARK  298  A    between atoms: _778  and  _779
REMARK  299  A    between atoms: _782  and  _784
REMARK  300  A    between atoms: _784  and  _785
REMARK  301  A    between atoms: _784  and  _787
REMARK  302  A    between atoms: _787  and  _788
REMARK  303  A    between atoms: _790  and  _792
REMARK  304  A    between atoms: _792  and  _793
REMARK  305  A    between atoms: _792  and  _795
REMARK  306  A    between atoms: _795  and  _796
REMARK  307  A    between atoms: _796  and  _797
REMARK  308  A    between atoms: _797  and  _798
REMARK  309  A    between atoms: _807  and  _809
REMARK  310  A    between atoms: _809  and  _810
REMARK                            x       y       z     vdW  Elec       q    Type
REMARK                         _______ _______ _______ _____ _____    ______ ____
ROOT
ATOM      1  O   HOH     1     -30.933 -20.171 -14.648  0.00  0.00    +0.000 OA
ENDROOT
TORSDOF 0
REMARK  Name = ../refined-set-2016/3rt4/3rt4_pocket.pdb
REMARK  310 active torsions:
REMARK  status: ('A' for Active; 'I' for Inactive)
REMARK    1  A    between atoms: _1  and  _3
REMARK    2  A    between atoms: _3  and  _4
REMARK    3  A    between atoms: _3  and  _6
REMARK    4  A    between atoms: _6  and  _7
REMARK    5  A    between atoms: _7  and  _8
REMARK    6  A    between atoms: _8  and  _9
REMARK    7  A    between atoms: _18  and  _20
REMARK    8  A    between atoms: _20  and  _21
REMARK    9  A    between atoms: _20  and  _23
REMARK   10  A    between atoms: _26  and  _28
REMARK   11  A    between atoms: _28  and  _29
REMARK   12  A    between atoms: _28  and  _31
REMARK   13  A    between atoms: _31  and  _32
REMARK   14  A    between atoms: _32  and  _33
REMARK   15  A    between atoms: _33  and  _34
REMARK   16  A    between atoms: _43  and  _45
REMARK   17  A    between atoms: _45  and  _46
REMARK   18  A    between atoms: _45  and  _48
REMARK   19  A    between atoms: _48  and  _49
REMARK   20  A    between atoms: _51  and  _53
REMARK   21  A    between atoms: _53  and  _54
REMARK   22  A    between atoms: _53  and  _56
REMARK   23  A    between atoms: _56  and  _57
REMARK   24  A    between atoms: _62  and  _64
REMARK   25  A    between atoms: _64  and  _65
REMARK   26  A    between atoms: _64  and  _67
REMARK   27  A    between atoms: _67  and  _68
REMARK   28  A    between atoms: _73  and  _74
REMARK   29  A    between atoms: _76  and  _78
REMARK   30  A    between atoms: _78  and  _79
REMARK   31  A    between atoms: _78  and  _81
REMARK   32  A    between atoms: _81  and  _82
REMARK   33  A    between atoms: _82  and  _83
REMARK   34  A    between atoms: _86  and  _88
REMARK   35  A    between atoms: _88  and  _89
REMARK   36  A    between atoms: _88  and  _91
REMARK   37  A    between atoms: _91  and  _92
REMARK   38  A    between atoms: _92  and  _93
REMARK   39  A    between atoms: _93  and  _94
REMARK   40  A    between atoms: _94  and  _95
REMARK   41  A    between atoms: _99  and  _101
REMARK   42  A    between atoms: _101  and  _102
REMARK   43  A    between atoms: _101  and  _104
REMARK   44  A    between atoms: _104  and  _105
REMARK   45  A    between atoms: _110  and  _111
REMARK   46  A    between atoms: _113  and  _115
REMARK   47  A    between atoms: _115  and  _116
REMARK   48  A    between atoms: _115  and  _118
REMARK   49  A    between atoms: _118  and  _119
REMARK   50  A    between atoms: _119  and  _120
REMARK   51  A    between atoms: _120  and  _121
REMARK   52  A    between atoms: _130  and  _132
REMARK   53  A    between atoms: _132  and  _133
REMARK   54  A    between atoms: _136  and  _138
REMARK   55  A    between atoms: _138  and  _139
REMARK   56  A    between atoms: _138  and  _141
REMARK   57  A    between atoms: _141  and  _142
REMARK   58  A    between atoms: _142  and  _258
REMARK   59  A    between atoms: _143  and  _145
REMARK   60  A    between atoms: _145  and  _146
REMARK   61  A    between atoms: _145  and  _148
REMARK   62  A    between atoms: _148  and  _149
REMARK   63  A    between atoms: _149  and  _150
REMARK   64  A    between atoms: _153  and  _155
REMARK   65  A    between atoms: _155  and  _156
REMARK   66  A    between atoms: _155  and  _158
REMARK   67  A    between atoms: _158  and  _159
REMARK   68  A    between atoms: _161  and  _163
REMARK   69  A    between atoms: _163  and  _164
REMARK   70  A    between atoms: _163  and  _166
REMARK   71  A    between atoms: _166  and  _167
REMARK   72  A    between atoms: _172  and  _173
REMARK   73  A    between atoms: _175  and  _177
REMARK   74  A    between atoms: _177  and  _178
REMARK   75  A    between atoms: _177  and  _180
REMARK   76  A    between atoms: _180  and  _181
REMARK   77  A    between atoms: _186  and  _188
REMARK   78  A    between atoms: _188  and  _189
REMARK   79  A    between atoms: _188  and  _191
REMARK   80  A    between atoms: _194  and  _196
REMARK   81  A    between atoms: _196  and  _197
REMARK   82  A    between atoms: _196  and  _199
REMARK   83  A    between atoms: _199  and  _200
REMARK   84  A    between atoms: _200  and  _201
REMARK   85  A    between atoms: _201  and  _202
REMARK   86  A    between atoms: _211  and  _213
REMARK   87  A    between atoms: _213  and  _214
REMARK   88  A    between atoms: _213  and  _216
REMARK   89  A    between atoms: _216  and  _217
REMARK   90  A    between atoms: _222  and  _224
REMARK   91  A    between atoms: _224  and  _225
REMARK   92  A    between atoms: _224  and  _227
REMARK   93  A    between atoms: _227  and  _228
REMARK   94  A    between atoms: _231  and  _233
REMARK   95  A    between atoms: _233  and  _234
REMARK   96  A    between atoms: _236  and  _238
REMARK   97  A    between atoms: _238  and  _239
REMARK   98  A    between atoms: _238  and  _241
REMARK   99  A    between atoms: _241  and  _242
REMARK  100  A    between atoms: _252  and  _254
REMARK  101  A    between atoms: _254  and  _255
REMARK  102  A    between atoms: _254  and  _257
REMARK  103  A    between atoms: _257  and  _258
REMARK  104  A    between atoms: _259  and  _261
REMARK  105  A    between atoms: _261  and  _262
REMARK  106  A    between atoms: _261  and  _264
REMARK  107  A    between atoms: _264  and  _265
REMARK  108  A    between atoms: _268  and  _270
REMARK  109  A    between atoms: _270  and  _271
REMARK  110  A    between atoms: _273  and  _275
REMARK  111  A    between atoms: _275  and  _276
REMARK  112  A    between atoms: _275  and  _278
REMARK  113  A    between atoms: _278  and  _279
REMARK  114  A    between atoms: _284  and  _285
REMARK  115  A    between atoms: _287  and  _289
REMARK  116  A    between atoms: _289  and  _290
REMARK  117  A    between atoms: _289  and  _292
REMARK  118  A    between atoms: _292  and  _293
REMARK  119  A    between atoms: _293  and  _294
REMARK  120  A    between atoms: _294  and  _295
REMARK  121  A    between atoms: _304  and  _306
REMARK  122  A    between atoms: _306  and  _307
REMARK  123  A    between atoms: _306  and  _309
REMARK  124  A    between atoms: _309  and  _310
REMARK  125  A    between atoms: _310  and  _311
REMARK  126  A    between atoms: _311  and  _312
REMARK  127  A    between atoms: _312  and  _313
REMARK  128  A    between atoms: _317  and  _319
REMARK  129  A    between atoms: _319  and  _320
REMARK  130  A    between atoms: _322  and  _324
REMARK  131  A    between atoms: _324  and  _325
REMARK  132  A    between atoms: _328  and  _330
REMARK  133  A    between atoms: _330  and  _331
REMARK  134  A    between atoms: _330  and  _333
REMARK  135  A    between atoms: _333  and  _334
REMARK  136  A    between atoms: _339  and  _341
REMARK  137  A    between atoms: _341  and  _342
REMARK  138  A    between atoms: _345  and  _347
REMARK  139  A    between atoms: _347  and  _348
REMARK  140  A    between atoms: _351  and  _352
REMARK  141  A    between atoms: _357  and  _359
REMARK  142  A    between atoms: _359  and  _360
REMARK  143  A    between atoms: _359  and  _362
REMARK  144  A    between atoms: _362  and  _363
REMARK  145  A    between atoms: _366  and  _368
REMARK  146  A    between atoms: _368  and  _369
REMARK  147  A    between atoms: _368  and  _371
REMARK  148  A    between atoms: _371  and  _372
REMARK  149  A    between atoms: _382  and  _384
REMARK  150  A    between atoms: _384  and  _385
REMARK  151  A    between atoms: _384  and  _387
REMARK  152  A    between atoms: _387  and  _388
REMARK  153  A    between atoms: _394  and  _395
REMARK  154  A    between atoms: _400  and  _402
REMARK  155  A    between atoms: _402  and  _403
REMARK  156  A    between atoms: _402  and  _405
REMARK  157  A    between atoms: _405  and  _406
REMARK  158  A    between atoms: _409  and  _411
REMARK  159  A    between atoms: _411  and  _412
REMARK  160  A    between atoms: _411  and  _414
REMARK  161  A    between atoms: _414  and  _415
REMARK  162  A    between atoms: _417  and  _419
REMARK  163  A    between atoms: _419  and  _420
REMARK  164  A    between atoms: _419  and  _422
REMARK  165  A    between atoms: _422  and  _423
REMARK  166  A    between atoms: _428  and  _430
REMARK  167  A    between atoms: _430  and  _431
REMARK  168  A    between atoms: _430  and  _433
REMARK  169  A    between atoms: _436  and  _438
REMARK  170  A    between atoms: _438  and  _439
REMARK  171  A    between atoms: _438  and  _441
REMARK  172  A    between atoms: _441  and  _442
REMARK  173  A    between atoms: _442  and  _443
REMARK  174  A    between atoms: _449  and  _450
REMARK  175  A    between atoms: _455  and  _457
REMARK  176  A    between atoms: _457  and  _458
REMARK  177  A    between atoms: _457  and  _460
REMARK  178  A    between atoms: _460  and  _461
REMARK  179  A    between atoms: _464  and  _466
REMARK  180  A    between atoms: _466  and  _467
REMARK  181  A    between atoms: _466  and  _469
REMARK  182  A    between atoms: _469  and  _470
REMARK  183  A    between atoms: _473  and  _475
REMARK  184  A    between atoms: _475  and  _476
REMARK  185  A    between atoms: _475  and  _478
REMARK  186  A    between atoms: _478  and  _479
REMARK  187  A    between atoms: _481  and  _483
REMARK  188  A    between atoms: _483  and  _484
REMARK  189  A    between atoms: _483  and  _486
REMARK  190  A    between atoms: _486  and  _487
REMARK  191  A    between atoms: _492  and  _493
REMARK  192  A    between atoms: _495  and  _497
REMARK  193  A    between atoms: _497  and  _498
REMARK  194  A    between atoms: _497  and  _500
REMARK  195  A    between atoms: _500  and  _501
REMARK  196  A    between atoms: _506  and  _508
REMARK  197  A    between atoms: _508  and  _509
REMARK  198  A    between atoms: _508  and  _511
REMARK  199  A    between atoms: _511  and  _512
REMARK  200  A    between atoms: _515  and  _517
REMARK  201  A    between atoms: _517  and  _518
REMARK  202  A    between atoms: _517  and  _520
REMARK  203  A    between atoms: _520  and  _521
REMARK  204  A    between atoms: _531  and  _533
REMARK  205  A    between atoms: _533  and  _534
REMARK  206  A    between atoms: _536  and  _538
REMARK  207  A    between atoms: _538  and  _539
REMARK  208  A    between atoms: _538  and  _541
REMARK  209  A    between atoms: _541  and  _542
REMARK  210  A    between atoms: _547  and  _548
REMARK  211  A    between atoms: _550  and  _552
REMARK  212  A    between atoms: _552  and  _553
REMARK  213  A    between atoms: _552  and  _555
REMARK  214  A    between atoms: _555  and  _556
REMARK  215  A    between atoms: _556  and  _557
REMARK  216  A    between atoms: _557  and  _558
REMARK  217  A    between atoms: _567  and  _569
REMARK  218  A    between atoms: _569  and  _570
REMARK  219  A    between atoms: _569  and  _572
REMARK  220  A    between atoms: _572  and  _573
REMARK  221  A    between atoms: _573  and  _574
REMARK  222  A    between atoms: _574  and  _575
REMARK  223  A    between atoms: _575  and  _576
REMARK  224  A    between atoms: _580  and  _582
REMARK  225  A    between atoms: _582  and  _583
REMARK  226  A    between atoms: _585  and  _587
REMARK  227  A    between atoms: _587  and  _588
REMARK  228  A    between atoms: _591  and  _593
REMARK  229  A    between atoms: _593  and  _594
REMARK  230  A    between atoms: _593  and  _596
REMARK  231  A    between atoms: _596  and  _597
REMARK  232  A    between atoms: _602  and  _604
REMARK  233  A    between atoms: _604  and  _605
REMARK  234  A    between atoms: _608  and  _610
REMARK  235  A    between atoms: _610  and  _611
REMARK  236  A    between atoms: _614  and  _615
REMARK  237  A    between atoms: _620  and  _622
REMARK  238  A    between atoms: _622  and  _623
REMARK  239  A    between atoms: _622  and  _625
REMARK  240  A    between atoms: _625  and  _626
REMARK  241  A    between atoms: _629  and  _631
REMARK  242  A    between atoms: _631  and  _632
REMARK  243  A    between atoms: _631  and  _634
REMARK  244  A    between atoms: _634  and  _635
REMARK  245  A    between atoms: _645  and  _647
REMARK  246  A    between atoms: _647  and  _648
REMARK  247  A    between atoms: _647  and  _650
REMARK  248  A    between atoms: _650  and  _651
REMARK  249  A    between atoms: _657  and  _658
REMARK  250  A    between atoms: _663  and  _665
REMARK  251  A    between atoms: _665  and  _666
REMARK  252  A    between atoms: _665  and  _668
REMARK  253  A    between atoms: _668  and  _669
REMARK  254  A    between atoms: _672  and  _674
REMARK  255  A    between atoms: _674  and  _675
REMARK  256  A    between atoms: _674  and  _677
REMARK  257  A    between atoms: _677  and  _678
REMARK  258  A    between atoms: _678  and  _679
REMARK  259  A    between atoms: _682  and  _684
REMARK  260  A    between atoms: _684  and  _685
REMARK  261  A    between atoms: _684  and  _687
REMARK  262  A    between atoms: _687  and  _688
REMARK  263  A    between atoms: _688  and  _689
REMARK  264  A    between atoms: _689  and  _690
REMARK  265  A    between atoms: _690  and  _691
REMARK  266  A    between atoms: _695  and  _697
REMARK  267  A    between atoms: _697  and  _698
REMARK  268  A    between atoms: _700  and  _702
REMARK  269  A    between atoms: _702  and  _703
REMARK  270  A    between atoms: _702  and  _705
REMARK  271  A    between atoms: _705  and  _706
REMARK  272  A    between atoms: _711  and  _713
REMARK  273  A    between atoms: _713  and  _714
REMARK  274  A    between atoms: _713  and  _716
REMARK  275  A    between atoms: _716  and  _717
REMARK  276  A    between atoms: _717  and  _718
REMARK  277  A    between atoms: _718  and  _719
REMARK  278  A    between atoms: _728  and  _730
REMARK  279  A    between atoms: _730  and  _731
REMARK  280  A    between atoms: _730  and  _733
REMARK  281  A    between atoms: _733  and  _734
REMARK  282  A    between atoms: _737  and  _739
REMARK  283  A    between atoms: _739  and  _740
REMARK  284  A    between atoms: _739  and  _742
REMARK  285  A    between atoms: _745  and  _747
REMARK  286  A    between atoms: _747  and  _748
REMARK  287  A    between atoms: _747  and  _750
REMARK  288  A    between atoms: _750  and  _751
REMARK  289  A    between atoms: _751  and  _752
REMARK  290  A    between atoms: _758  and  _759
REMARK  291  A    between atoms: _764  and  _766
REMARK  292  A    between atoms: _766  and  _767
REMARK  293  A    between atoms: _766  and  _769
REMARK  294  A    between atoms: _769  and  _770
REMARK  295  A    between atoms: _773  and  _775
REMARK  296  A    between atoms: _775  and  _776
REMARK  297  A    between atoms: _775  and  _778
REMARK  298  A    between atoms: _778  and  _779
REMARK  299  A    between atoms: _782  and  _784
REMARK  300  A    between atoms: _784  and  _785
REMARK  301  A    between atoms: _784  and  _787
REMARK  302  A    between atoms: _787  and  _788
REMARK  303  A    between atoms: _790  and  _792
REMARK  304  A    between atoms: _792  and  _793
REMARK  305  A    between atoms: _792  and  _795
REMARK  306  A    between atoms: _795  and  _796
REMARK  307  A    between atoms: _796  and  _797
REMARK  308  A    between atoms: _797  and  _798
REMARK  309  A    between atoms: _807  and  _809
REMARK  310  A    between atoms: _809  and  _810
REMARK                            x       y       z     vdW  Elec       q    Type
REMARK                         _______ _______ _______ _____ _____    ______ ____
ROOT
ATOM      1  O   HOH     1     -23.126 -21.267 -21.250  0.00  0.00    +0.000 OA
ENDROOT
TORSDOF 0
REMARK  Name = ../refined-set-2016/3rt4/3rt4_pocket.pdb
REMARK  310 active torsions:
REMARK  status: ('A' for Active; 'I' for Inactive)
REMARK    1  A    between atoms: _1  and  _3
REMARK    2  A    between atoms: _3  and  _4
REMARK    3  A    between atoms: _3  and  _6
REMARK    4  A    between atoms: _6  and  _7
REMARK    5  A    between atoms: _7  and  _8
REMARK    6  A    between atoms: _8  and  _9
REMARK    7  A    between atoms: _18  and  _20
REMARK    8  A    between atoms: _20  and  _21
REMARK    9  A    between atoms: _20  and  _23
REMARK   10  A    between atoms: _26  and  _28
REMARK   11  A    between atoms: _28  and  _29
REMARK   12  A    between atoms: _28  and  _31
REMARK   13  A    between atoms: _31  and  _32
REMARK   14  A    between atoms: _32  and  _33
REMARK   15  A    between atoms: _33  and  _34
REMARK   16  A    between atoms: _43  and  _45
REMARK   17  A    between atoms: _45  and  _46
REMARK   18  A    between atoms: _45  and  _48
REMARK   19  A    between atoms: _48  and  _49
REMARK   20  A    between atoms: _51  and  _53
REMARK   21  A    between atoms: _53  and  _54
REMARK   22  A    between atoms: _53  and  _56
REMARK   23  A    between atoms: _56  and  _57
REMARK   24  A    between atoms: _62  and  _64
REMARK   25  A    between atoms: _64  and  _65
REMARK   26  A    between atoms: _64  and  _67
REMARK   27  A    between atoms: _67  and  _68
REMARK   28  A    between atoms: _73  and  _74
REMARK   29  A    between atoms: _76  and  _78
REMARK   30  A    between atoms: _78  and  _79
REMARK   31  A    between atoms: _78  and  _81
REMARK   32  A    between atoms: _81  and  _82
REMARK   33  A    between atoms: _82  and  _83
REMARK   34  A    between atoms: _86  and  _88
REMARK   35  A    between atoms: _88  and  _89
REMARK   36  A    between atoms: _88  and  _91
REMARK   37  A    between atoms: _91  and  _92
REMARK   38  A    between atoms: _92  and  _93
REMARK   39  A    between atoms: _93  and  _94
REMARK   40  A    between atoms: _94  and  _95
REMARK   41  A    between atoms: _99  and  _101
REMARK   42  A    between atoms: _101  and  _102
REMARK   43  A    between atoms: _101  and  _104
REMARK   44  A    between atoms: _104  and  _105
REMARK   45  A    between atoms: _110  and  _111
REMARK   46  A    between atoms: _113  and  _115
REMARK   47  A    between atoms: _115  and  _116
REMARK   48  A    between atoms: _115  and  _118
REMARK   49  A    between atoms: _118  and  _119
REMARK   50  A    between atoms: _119  and  _120
REMARK   51  A    between atoms: _120  and  _121
REMARK   52  A    between atoms: _130  and  _132
REMARK   53  A    between atoms: _132  and  _133
REMARK   54  A    between atoms: _136  and  _138
REMARK   55  A    between atoms: _138  and  _139
REMARK   56  A    between atoms: _138  and  _141
REMARK   57  A    between atoms: _141  and  _142
REMARK   58  A    between atoms: _142  and  _258
REMARK   59  A    between atoms: _143  and  _145
REMARK   60  A    between atoms: _145  and  _146
REMARK   61  A    between atoms: _145  and  _148
REMARK   62  A    between atoms: _148  and  _149
REMARK   63  A    between atoms: _149  and  _150
REMARK   64  A    between atoms: _153  and  _155
REMARK   65  A    between atoms: _155  and  _156
REMARK   66  A    between atoms: _155  and  _158
REMARK   67  A    between atoms: _158  and  _159
REMARK   68  A    between atoms: _161  and  _163
REMARK   69  A    between atoms: _163  and  _164
REMARK   70  A    between atoms: _163  and  _166
REMARK   71  A    between atoms: _166  and  _167
REMARK   72  A    between atoms: _172  and  _173
REMARK   73  A    between atoms: _175  and  _177
REMARK   74  A    between atoms: _177  and  _178
REMARK   75  A    between atoms: _177  and  _180
REMARK   76  A    between atoms: _180  and  _181
REMARK   77  A    between atoms: _186  and  _188
REMARK   78  A    between atoms: _188  and  _189
REMARK   79  A    between atoms: _188  and  _191
REMARK   80  A    between atoms: _194  and  _196
REMARK   81  A    between atoms: _196  and  _197
REMARK   82  A    between atoms: _196  and  _199
REMARK   83  A    between atoms: _199  and  _200
REMARK   84  A    between atoms: _200  and  _201
REMARK   85  A    between atoms: _201  and  _202
REMARK   86  A    between atoms: _211  and  _213
REMARK   87  A    between atoms: _213  and  _214
REMARK   88  A    between atoms: _213  and  _216
REMARK   89  A    between atoms: _216  and  _217
REMARK   90  A    between atoms: _222  and  _224
REMARK   91  A    between atoms: _224  and  _225
REMARK   92  A    between atoms: _224  and  _227
REMARK   93  A    between atoms: _227  and  _228
REMARK   94  A    between atoms: _231  and  _233
REMARK   95  A    between atoms: _233  and  _234
REMARK   96  A    between atoms: _236  and  _238
REMARK   97  A    between atoms: _238  and  _239
REMARK   98  A    between atoms: _238  and  _241
REMARK   99  A    between atoms: _241  and  _242
REMARK  100  A    between atoms: _252  and  _254
REMARK  101  A    between atoms: _254  and  _255
REMARK  102  A    between atoms: _254  and  _257
REMARK  103  A    between atoms: _257  and  _258
REMARK  104  A    between atoms: _259  and  _261
REMARK  105  A    between atoms: _261  and  _262
REMARK  106  A    between atoms: _261  and  _264
REMARK  107  A    between atoms: _264  and  _265
REMARK  108  A    between atoms: _268  and  _270
REMARK  109  A    between atoms: _270  and  _271
REMARK  110  A    between atoms: _273  and  _275
REMARK  111  A    between atoms: _275  and  _276
REMARK  112  A    between atoms: _275  and  _278
REMARK  113  A    between atoms: _278  and  _279
REMARK  114  A    between atoms: _284  and  _285
REMARK  115  A    between atoms: _287  and  _289
REMARK  116  A    between atoms: _289  and  _290
REMARK  117  A    between atoms: _289  and  _292
REMARK  118  A    between atoms: _292  and  _293
REMARK  119  A    between atoms: _293  and  _294
REMARK  120  A    between atoms: _294  and  _295
REMARK  121  A    between atoms: _304  and  _306
REMARK  122  A    between atoms: _306  and  _307
REMARK  123  A    between atoms: _306  and  _309
REMARK  124  A    between atoms: _309  and  _310
REMARK  125  A    between atoms: _310  and  _311
REMARK  126  A    between atoms: _311  and  _312
REMARK  127  A    between atoms: _312  and  _313
REMARK  128  A    between atoms: _317  and  _319
REMARK  129  A    between atoms: _319  and  _320
REMARK  130  A    between atoms: _322  and  _324
REMARK  131  A    between atoms: _324  and  _325
REMARK  132  A    between atoms: _328  and  _330
REMARK  133  A    between atoms: _330  and  _331
REMARK  134  A    between atoms: _330  and  _333
REMARK  135  A    between atoms: _333  and  _334
REMARK  136  A    between atoms: _339  and  _341
REMARK  137  A    between atoms: _341  and  _342
REMARK  138  A    between atoms: _345  and  _347
REMARK  139  A    between atoms: _347  and  _348
REMARK  140  A    between atoms: _351  and  _352
REMARK  141  A    between atoms: _357  and  _359
REMARK  142  A    between atoms: _359  and  _360
REMARK  143  A    between atoms: _359  and  _362
REMARK  144  A    between atoms: _362  and  _363
REMARK  145  A    between atoms: _366  and  _368
REMARK  146  A    between atoms: _368  and  _369
REMARK  147  A    between atoms: _368  and  _371
REMARK  148  A    between atoms: _371  and  _372
REMARK  149  A    between atoms: _382  and  _384
REMARK  150  A    between atoms: _384  and  _385
REMARK  151  A    between atoms: _384  and  _387
REMARK  152  A    between atoms: _387  and  _388
REMARK  153  A    between atoms: _394  and  _395
REMARK  154  A    between atoms: _400  and  _402
REMARK  155  A    between atoms: _402  and  _403
REMARK  156  A    between atoms: _402  and  _405
REMARK  157  A    between atoms: _405  and  _406
REMARK  158  A    between atoms: _409  and  _411
REMARK  159  A    between atoms: _411  and  _412
REMARK  160  A    between atoms: _411  and  _414
REMARK  161  A    between atoms: _414  and  _415
REMARK  162  A    between atoms: _417  and  _419
REMARK  163  A    between atoms: _419  and  _420
REMARK  164  A    between atoms: _419  and  _422
REMARK  165  A    between atoms: _422  and  _423
REMARK  166  A    between atoms: _428  and  _430
REMARK  167  A    between atoms: _430  and  _431
REMARK  168  A    between atoms: _430  and  _433
REMARK  169  A    between atoms: _436  and  _438
REMARK  170  A    between atoms: _438  and  _439
REMARK  171  A    between atoms: _438  and  _441
REMARK  172  A    between atoms: _441  and  _442
REMARK  173  A    between atoms: _442  and  _443
REMARK  174  A    between atoms: _449  and  _450
REMARK  175  A    between atoms: _455  and  _457
REMARK  176  A    between atoms: _457  and  _458
REMARK  177  A    between atoms: _457  and  _460
REMARK  178  A    between atoms: _460  and  _461
REMARK  179  A    between atoms: _464  and  _466
REMARK  180  A    between atoms: _466  and  _467
REMARK  181  A    between atoms: _466  and  _469
REMARK  182  A    between atoms: _469  and  _470
REMARK  183  A    between atoms: _473  and  _475
REMARK  184  A    between atoms: _475  and  _476
REMARK  185  A    between atoms: _475  and  _478
REMARK  186  A    between atoms: _478  and  _479
REMARK  187  A    between atoms: _481  and  _483
REMARK  188  A    between atoms: _483  and  _484
REMARK  189  A    between atoms: _483  and  _486
REMARK  190  A    between atoms: _486  and  _487
REMARK  191  A    between atoms: _492  and  _493
REMARK  192  A    between atoms: _495  and  _497
REMARK  193  A    between atoms: _497  and  _498
REMARK  194  A    between atoms: _497  and  _500
REMARK  195  A    between atoms: _500  and  _501
REMARK  196  A    between atoms: _506  and  _508
REMARK  197  A    between atoms: _508  and  _509
REMARK  198  A    between atoms: _508  and  _511
REMARK  199  A    between atoms: _511  and  _512
REMARK  200  A    between atoms: _515  and  _517
REMARK  201  A    between atoms: _517  and  _518
REMARK  202  A    between atoms: _517  and  _520
REMARK  203  A    between atoms: _520  and  _521
REMARK  204  A    between atoms: _531  and  _533
REMARK  205  A    between atoms: _533  and  _534
REMARK  206  A    between atoms: _536  and  _538
REMARK  207  A    between atoms: _538  and  _539
REMARK  208  A    between atoms: _538  and  _541
REMARK  209  A    between atoms: _541  and  _542
REMARK  210  A    between atoms: _547  and  _548
REMARK  211  A    between atoms: _550  and  _552
REMARK  212  A    between atoms: _552  and  _553
REMARK  213  A    between atoms: _552  and  _555
REMARK  214  A    between atoms: _555  and  _556
REMARK  215  A    between atoms: _556  and  _557
REMARK  216  A    between atoms: _557  and  _558
REMARK  217  A    between atoms: _567  and  _569
REMARK  218  A    between atoms: _569  and  _570
REMARK  219  A    between atoms: _569  and  _572
REMARK  220  A    between atoms: _572  and  _573
REMARK  221  A    between atoms: _573  and  _574
REMARK  222  A    between atoms: _574  and  _575
REMARK  223  A    between atoms: _575  and  _576
REMARK  224  A    between atoms: _580  and  _582
REMARK  225  A    between atoms: _582  and  _583
REMARK  226  A    between atoms: _585  and  _587
REMARK  227  A    between atoms: _587  and  _588
REMARK  228  A    between atoms: _591  and  _593
REMARK  229  A    between atoms: _593  and  _594
REMARK  230  A    between atoms: _593  and  _596
REMARK  231  A    between atoms: _596  and  _597
REMARK  232  A    between atoms: _602  and  _604
REMARK  233  A    between atoms: _604  and  _605
REMARK  234  A    between atoms: _608  and  _610
REMARK  235  A    between atoms: _610  and  _611
REMARK  236  A    between atoms: _614  and  _615
REMARK  237  A    between atoms: _620  and  _622
REMARK  238  A    between atoms: _622  and  _623
REMARK  239  A    between atoms: _622  and  _625
REMARK  240  A    between atoms: _625  and  _626
REMARK  241  A    between atoms: _629  and  _631
REMARK  242  A    between atoms: _631  and  _632
REMARK  243  A    between atoms: _631  and  _634
REMARK  244  A    between atoms: _634  and  _635
REMARK  245  A    between atoms: _645  and  _647
REMARK  246  A    between atoms: _647  and  _648
REMARK  247  A    between atoms: _647  and  _650
REMARK  248  A    between atoms: _650  and  _651
REMARK  249  A    between atoms: _657  and  _658
REMARK  250  A    between atoms: _663  and  _665
REMARK  251  A    between atoms: _665  and  _666
REMARK  252  A    between atoms: _665  and  _668
REMARK  253  A    between atoms: _668  and  _669
REMARK  254  A    between atoms: _672  and  _674
REMARK  255  A    between atoms: _674  and  _675
REMARK  256  A    between atoms: _674  and  _677
REMARK  257  A    between atoms: _677  and  _678
REMARK  258  A    between atoms: _678  and  _679
REMARK  259  A    between atoms: _682  and  _684
REMARK  260  A    between atoms: _684  and  _685
REMARK  261  A    between atoms: _684  and  _687
REMARK  262  A    between atoms: _687  and  _688
REMARK  263  A    between atoms: _688  and  _689
REMARK  264  A    between atoms: _689  and  _690
REMARK  265  A    between atoms: _690  and  _691
REMARK  266  A    between atoms: _695  and  _697
REMARK  267  A    between atoms: _697  and  _698
REMARK  268  A    between atoms: _700  and  _702
REMARK  269  A    between atoms: _702  and  _703
REMARK  270  A    between atoms: _702  and  _705
REMARK  271  A    between atoms: _705  and  _706
REMARK  272  A    between atoms: _711  and  _713
REMARK  273  A    between atoms: _713  and  _714
REMARK  274  A    between atoms: _713  and  _716
REMARK  275  A    between atoms: _716  and  _717
REMARK  276  A    between atoms: _717  and  _718
REMARK  277  A    between atoms: _718  and  _719
REMARK  278  A    between atoms: _728  and  _730
REMARK  279  A    between atoms: _730  and  _731
REMARK  280  A    between atoms: _730  and  _733
REMARK  281  A    between atoms: _733  and  _734
REMARK  282  A    between atoms: _737  and  _739
REMARK  283  A    between atoms: _739  and  _740
REMARK  284  A    between atoms: _739  and  _742
REMARK  285  A    between atoms: _745  and  _747
REMARK  286  A    between atoms: _747  and  _748
REMARK  287  A    between atoms: _747  and  _750
REMARK  288  A    between atoms: _750  and  _751
REMARK  289  A    between atoms: _751  and  _752
REMARK  290  A    between atoms: _758  and  _759
REMARK  291  A    between atoms: _764  and  _766
REMARK  292  A    between atoms: _766  and  _767
REMARK  293  A    between atoms: _766  and  _769
REMARK  294  A    between atoms: _769  and  _770
REMARK  295  A    between atoms: _773  and  _775
REMARK  296  A    between atoms: _775  and  _776
REMARK  297  A    between atoms: _775  and  _778
REMARK  298  A    between atoms: _778  and  _779
REMARK  299  A    between atoms: _782  and  _784
REMARK  300  A    between atoms: _784  and  _785
REMARK  301  A    between atoms: _784  and  _787
REMARK  302  A    between atoms: _787  and  _788
REMARK  303  A    between atoms: _790  and  _792
REMARK  304  A    between atoms: _792  and  _793
REMARK  305  A    between atoms: _792  and  _795
REMARK  306  A    between atoms: _795  and  _796
REMARK  307  A    between atoms: _796  and  _797
REMARK  308  A    between atoms: _797  and  _798
REMARK  309  A    between atoms: _807  and  _809
REMARK  310  A    between atoms: _809  and  _810
REMARK                            x       y       z     vdW  Elec       q    Type
REMARK                         _______ _______ _______ _____ _____    ______ ____
ROOT
ATOM      1  O   HOH     1     -37.665 -23.396 -34.015  0.00  0.00    +0.000 OA
ENDROOT
TORSDOF 0
REMARK  Name = ../refined-set-2016/3rt4/3rt4_pocket.pdb
REMARK  310 active torsions:
REMARK  status: ('A' for Active; 'I' for Inactive)
REMARK    1  A    between atoms: _1  and  _3
REMARK    2  A    between atoms: _3  and  _4
REMARK    3  A    between atoms: _3  and  _6
REMARK    4  A    between atoms: _6  and  _7
REMARK    5  A    between atoms: _7  and  _8
REMARK    6  A    between atoms: _8  and  _9
REMARK    7  A    between atoms: _18  and  _20
REMARK    8  A    between atoms: _20  and  _21
REMARK    9  A    between atoms: _20  and  _23
REMARK   10  A    between atoms: _26  and  _28
REMARK   11  A    between atoms: _28  and  _29
REMARK   12  A    between atoms: _28  and  _31
REMARK   13  A    between atoms: _31  and  _32
REMARK   14  A    between atoms: _32  and  _33
REMARK   15  A    between atoms: _33  and  _34
REMARK   16  A    between atoms: _43  and  _45
REMARK   17  A    between atoms: _45  and  _46
REMARK   18  A    between atoms: _45  and  _48
REMARK   19  A    between atoms: _48  and  _49
REMARK   20  A    between atoms: _51  and  _53
REMARK   21  A    between atoms: _53  and  _54
REMARK   22  A    between atoms: _53  and  _56
REMARK   23  A    between atoms: _56  and  _57
REMARK   24  A    between atoms: _62  and  _64
REMARK   25  A    between atoms: _64  and  _65
REMARK   26  A    between atoms: _64  and  _67
REMARK   27  A    between atoms: _67  and  _68
REMARK   28  A    between atoms: _73  and  _74
REMARK   29  A    between atoms: _76  and  _78
REMARK   30  A    between atoms: _78  and  _79
REMARK   31  A    between atoms: _78  and  _81
REMARK   32  A    between atoms: _81  and  _82
REMARK   33  A    between atoms: _82  and  _83
REMARK   34  A    between atoms: _86  and  _88
REMARK   35  A    between atoms: _88  and  _89
REMARK   36  A    between atoms: _88  and  _91
REMARK   37  A    between atoms: _91  and  _92
REMARK   38  A    between atoms: _92  and  _93
REMARK   39  A    between atoms: _93  and  _94
REMARK   40  A    between atoms: _94  and  _95
REMARK   41  A    between atoms: _99  and  _101
REMARK   42  A    between atoms: _101  and  _102
REMARK   43  A    between atoms: _101  and  _104
REMARK   44  A    between atoms: _104  and  _105
REMARK   45  A    between atoms: _110  and  _111
REMARK   46  A    between atoms: _113  and  _115
REMARK   47  A    between atoms: _115  and  _116
REMARK   48  A    between atoms: _115  and  _118
REMARK   49  A    between atoms: _118  and  _119
REMARK   50  A    between atoms: _119  and  _120
REMARK   51  A    between atoms: _120  and  _121
REMARK   52  A    between atoms: _130  and  _132
REMARK   53  A    between atoms: _132  and  _133
REMARK   54  A    between atoms: _136  and  _138
REMARK   55  A    between atoms: _138  and  _139
REMARK   56  A    between atoms: _138  and  _141
REMARK   57  A    between atoms: _141  and  _142
REMARK   58  A    between atoms: _142  and  _258
REMARK   59  A    between atoms: _143  and  _145
REMARK   60  A    between atoms: _145  and  _146
REMARK   61  A    between atoms: _145  and  _148
REMARK   62  A    between atoms: _148  and  _149
REMARK   63  A    between atoms: _149  and  _150
REMARK   64  A    between atoms: _153  and  _155
REMARK   65  A    between atoms: _155  and  _156
REMARK   66  A    between atoms: _155  and  _158
REMARK   67  A    between atoms: _158  and  _159
REMARK   68  A    between atoms: _161  and  _163
REMARK   69  A    between atoms: _163  and  _164
REMARK   70  A    between atoms: _163  and  _166
REMARK   71  A    between atoms: _166  and  _167
REMARK   72  A    between atoms: _172  and  _173
REMARK   73  A    between atoms: _175  and  _177
REMARK   74  A    between atoms: _177  and  _178
REMARK   75  A    between atoms: _177  and  _180
REMARK   76  A    between atoms: _180  and  _181
REMARK   77  A    between atoms: _186  and  _188
REMARK   78  A    between atoms: _188  and  _189
REMARK   79  A    between atoms: _188  and  _191
REMARK   80  A    between atoms: _194  and  _196
REMARK   81  A    between atoms: _196  and  _197
REMARK   82  A    between atoms: _196  and  _199
REMARK   83  A    between atoms: _199  and  _200
REMARK   84  A    between atoms: _200  and  _201
REMARK   85  A    between atoms: _201  and  _202
REMARK   86  A    between atoms: _211  and  _213
REMARK   87  A    between atoms: _213  and  _214
REMARK   88  A    between atoms: _213  and  _216
REMARK   89  A    between atoms: _216  and  _217
REMARK   90  A    between atoms: _222  and  _224
REMARK   91  A    between atoms: _224  and  _225
REMARK   92  A    between atoms: _224  and  _227
REMARK   93  A    between atoms: _227  and  _228
REMARK   94  A    between atoms: _231  and  _233
REMARK   95  A    between atoms: _233  and  _234
REMARK   96  A    between atoms: _236  and  _238
REMARK   97  A    between atoms: _238  and  _239
REMARK   98  A    between atoms: _238  and  _241
REMARK   99  A    between atoms: _241  and  _242
REMARK  100  A    between atoms: _252  and  _254
REMARK  101  A    between atoms: _254  and  _255
REMARK  102  A    between atoms: _254  and  _257
REMARK  103  A    between atoms: _257  and  _258
REMARK  104  A    between atoms: _259  and  _261
REMARK  105  A    between atoms: _261  and  _262
REMARK  106  A    between atoms: _261  and  _264
REMARK  107  A    between atoms: _264  and  _265
REMARK  108  A    between atoms: _268  and  _270
REMARK  109  A    between atoms: _270  and  _271
REMARK  110  A    between atoms: _273  and  _275
REMARK  111  A    between atoms: _275  and  _276
REMARK  112  A    between atoms: _275  and  _278
REMARK  113  A    between atoms: _278  and  _279
REMARK  114  A    between atoms: _284  and  _285
REMARK  115  A    between atoms: _287  and  _289
REMARK  116  A    between atoms: _289  and  _290
REMARK  117  A    between atoms: _289  and  _292
REMARK  118  A    between atoms: _292  and  _293
REMARK  119  A    between atoms: _293  and  _294
REMARK  120  A    between atoms: _294  and  _295
REMARK  121  A    between atoms: _304  and  _306
REMARK  122  A    between atoms: _306  and  _307
REMARK  123  A    between atoms: _306  and  _309
REMARK  124  A    between atoms: _309  and  _310
REMARK  125  A    between atoms: _310  and  _311
REMARK  126  A    between atoms: _311  and  _312
REMARK  127  A    between atoms: _312  and  _313
REMARK  128  A    between atoms: _317  and  _319
REMARK  129  A    between atoms: _319  and  _320
REMARK  130  A    between atoms: _322  and  _324
REMARK  131  A    between atoms: _324  and  _325
REMARK  132  A    between atoms: _328  and  _330
REMARK  133  A    between atoms: _330  and  _331
REMARK  134  A    between atoms: _330  and  _333
REMARK  135  A    between atoms: _333  and  _334
REMARK  136  A    between atoms: _339  and  _341
REMARK  137  A    between atoms: _341  and  _342
REMARK  138  A    between atoms: _345  and  _347
REMARK  139  A    between atoms: _347  and  _348
REMARK  140  A    between atoms: _351  and  _352
REMARK  141  A    between atoms: _357  and  _359
REMARK  142  A    between atoms: _359  and  _360
REMARK  143  A    between atoms: _359  and  _362
REMARK  144  A    between atoms: _362  and  _363
REMARK  145  A    between atoms: _366  and  _368
REMARK  146  A    between atoms: _368  and  _369
REMARK  147  A    between atoms: _368  and  _371
REMARK  148  A    between atoms: _371  and  _372
REMARK  149  A    between atoms: _382  and  _384
REMARK  150  A    between atoms: _384  and  _385
REMARK  151  A    between atoms: _384  and  _387
REMARK  152  A    between atoms: _387  and  _388
REMARK  153  A    between atoms: _394  and  _395
REMARK  154  A    between atoms: _400  and  _402
REMARK  155  A    between atoms: _402  and  _403
REMARK  156  A    between atoms: _402  and  _405
REMARK  157  A    between atoms: _405  and  _406
REMARK  158  A    between atoms: _409  and  _411
REMARK  159  A    between atoms: _411  and  _412
REMARK  160  A    between atoms: _411  and  _414
REMARK  161  A    between atoms: _414  and  _415
REMARK  162  A    between atoms: _417  and  _419
REMARK  163  A    between atoms: _419  and  _420
REMARK  164  A    between atoms: _419  and  _422
REMARK  165  A    between atoms: _422  and  _423
REMARK  166  A    between atoms: _428  and  _430
REMARK  167  A    between atoms: _430  and  _431
REMARK  168  A    between atoms: _430  and  _433
REMARK  169  A    between atoms: _436  and  _438
REMARK  170  A    between atoms: _438  and  _439
REMARK  171  A    between atoms: _438  and  _441
REMARK  172  A    between atoms: _441  and  _442
REMARK  173  A    between atoms: _442  and  _443
REMARK  174  A    between atoms: _449  and  _450
REMARK  175  A    between atoms: _455  and  _457
REMARK  176  A    between atoms: _457  and  _458
REMARK  177  A    between atoms: _457  and  _460
REMARK  178  A    between atoms: _460  and  _461
REMARK  179  A    between atoms: _464  and  _466
REMARK  180  A    between atoms: _466  and  _467
REMARK  181  A    between atoms: _466  and  _469
REMARK  182  A    between atoms: _469  and  _470
REMARK  183  A    between atoms: _473  and  _475
REMARK  184  A    between atoms: _475  and  _476
REMARK  185  A    between atoms: _475  and  _478
REMARK  186  A    between atoms: _478  and  _479
REMARK  187  A    between atoms: _481  and  _483
REMARK  188  A    between atoms: _483  and  _484
REMARK  189  A    between atoms: _483  and  _486
REMARK  190  A    between atoms: _486  and  _487
REMARK  191  A    between atoms: _492  and  _493
REMARK  192  A    between atoms: _495  and  _497
REMARK  193  A    between atoms: _497  and  _498
REMARK  194  A    between atoms: _497  and  _500
REMARK  195  A    between atoms: _500  and  _501
REMARK  196  A    between atoms: _506  and  _508
REMARK  197  A    between atoms: _508  and  _509
REMARK  198  A    between atoms: _508  and  _511
REMARK  199  A    between atoms: _511  and  _512
REMARK  200  A    between atoms: _515  and  _517
REMARK  201  A    between atoms: _517  and  _518
REMARK  202  A    between atoms: _517  and  _520
REMARK  203  A    between atoms: _520  and  _521
REMARK  204  A    between atoms: _531  and  _533
REMARK  205  A    between atoms: _533  and  _534
REMARK  206  A    between atoms: _536  and  _538
REMARK  207  A    between atoms: _538  and  _539
REMARK  208  A    between atoms: _538  and  _541
REMARK  209  A    between atoms: _541  and  _542
REMARK  210  A    between atoms: _547  and  _548
REMARK  211  A    between atoms: _550  and  _552
REMARK  212  A    between atoms: _552  and  _553
REMARK  213  A    between atoms: _552  and  _555
REMARK  214  A    between atoms: _555  and  _556
REMARK  215  A    between atoms: _556  and  _557
REMARK  216  A    between atoms: _557  and  _558
REMARK  217  A    between atoms: _567  and  _569
REMARK  218  A    between atoms: _569  and  _570
REMARK  219  A    between atoms: _569  and  _572
REMARK  220  A    between atoms: _572  and  _573
REMARK  221  A    between atoms: _573  and  _574
REMARK  222  A    between atoms: _574  and  _575
REMARK  223  A    between atoms: _575  and  _576
REMARK  224  A    between atoms: _580  and  _582
REMARK  225  A    between atoms: _582  and  _583
REMARK  226  A    between atoms: _585  and  _587
REMARK  227  A    between atoms: _587  and  _588
REMARK  228  A    between atoms: _591  and  _593
REMARK  229  A    between atoms: _593  and  _594
REMARK  230  A    between atoms: _593  and  _596
REMARK  231  A    between atoms: _596  and  _597
REMARK  232  A    between atoms: _602  and  _604
REMARK  233  A    between atoms: _604  and  _605
REMARK  234  A    between atoms: _608  and  _610
REMARK  235  A    between atoms: _610  and  _611
REMARK  236  A    between atoms: _614  and  _615
REMARK  237  A    between atoms: _620  and  _622
REMARK  238  A    between atoms: _622  and  _623
REMARK  239  A    between atoms: _622  and  _625
REMARK  240  A    between atoms: _625  and  _626
REMARK  241  A    between atoms: _629  and  _631
REMARK  242  A    between atoms: _631  and  _632
REMARK  243  A    between atoms: _631  and  _634
REMARK  244  A    between atoms: _634  and  _635
REMARK  245  A    between atoms: _645  and  _647
REMARK  246  A    between atoms: _647  and  _648
REMARK  247  A    between atoms: _647  and  _650
REMARK  248  A    between atoms: _650  and  _651
REMARK  249  A    between atoms: _657  and  _658
REMARK  250  A    between atoms: _663  and  _665
REMARK  251  A    between atoms: _665  and  _666
REMARK  252  A    between atoms: _665  and  _668
REMARK  253  A    between atoms: _668  and  _669
REMARK  254  A    between atoms: _672  and  _674
REMARK  255  A    between atoms: _674  and  _675
REMARK  256  A    between atoms: _674  and  _677
REMARK  257  A    between atoms: _677  and  _678
REMARK  258  A    between atoms: _678  and  _679
REMARK  259  A    between atoms: _682  and  _684
REMARK  260  A    between atoms: _684  and  _685
REMARK  261  A    between atoms: _684  and  _687
REMARK  262  A    between atoms: _687  and  _688
REMARK  263  A    between atoms: _688  and  _689
REMARK  264  A    between atoms: _689  and  _690
REMARK  265  A    between atoms: _690  and  _691
REMARK  266  A    between atoms: _695  and  _697
REMARK  267  A    between atoms: _697  and  _698
REMARK  268  A    between atoms: _700  and  _702
REMARK  269  A    between atoms: _702  and  _703
REMARK  270  A    between atoms: _702  and  _705
REMARK  271  A    between atoms: _705  and  _706
REMARK  272  A    between atoms: _711  and  _713
REMARK  273  A    between atoms: _713  and  _714
REMARK  274  A    between atoms: _713  and  _716
REMARK  275  A    between atoms: _716  and  _717
REMARK  276  A    between atoms: _717  and  _718
REMARK  277  A    between atoms: _718  and  _719
REMARK  278  A    between atoms: _728  and  _730
REMARK  279  A    between atoms: _730  and  _731
REMARK  280  A    between atoms: _730  and  _733
REMARK  281  A    between atoms: _733  and  _734
REMARK  282  A    between atoms: _737  and  _739
REMARK  283  A    between atoms: _739  and  _740
REMARK  284  A    between atoms: _739  and  _742
REMARK  285  A    between atoms: _745  and  _747
REMARK  286  A    between atoms: _747  and  _748
REMARK  287  A    between atoms: _747  and  _750
REMARK  288  A    between atoms: _750  and  _751
REMARK  289  A    between atoms: _751  and  _752
REMARK  290  A    between atoms: _758  and  _759
REMARK  291  A    between atoms: _764  and  _766
REMARK  292  A    between atoms: _766  and  _767
REMARK  293  A    between atoms: _766  and  _769
REMARK  294  A    between atoms: _769  and  _770
REMARK  295  A    between atoms: _773  and  _775
REMARK  296  A    between atoms: _775  and  _776
REMARK  297  A    between atoms: _775  and  _778
REMARK  298  A    between atoms: _778  and  _779
REMARK  299  A    between atoms: _782  and  _784
REMARK  300  A    between atoms: _784  and  _785
REMARK  301  A    between atoms: _784  and  _787
REMARK  302  A    between atoms: _787  and  _788
REMARK  303  A    between atoms: _790  and  _792
REMARK  304  A    between atoms: _792  and  _793
REMARK  305  A    between atoms: _792  and  _795
REMARK  306  A    between atoms: _795  and  _796
REMARK  307  A    between atoms: _796  and  _797
REMARK  308  A    between atoms: _797  and  _798
REMARK  309  A    between atoms: _807  and  _809
REMARK  310  A    between atoms: _809  and  _810
REMARK                            x       y       z     vdW  Elec       q    Type
REMARK                         _______ _______ _______ _____ _____    ______ ____
ROOT
ATOM      1  O   HOH     1     -30.600 -16.993  -9.618  0.00  0.00    +0.000 OA
ENDROOT
TORSDOF 0
REMARK  Name = ../refined-set-2016/3rt4/3rt4_pocket.pdb
REMARK  310 active torsions:
REMARK  status: ('A' for Active; 'I' for Inactive)
REMARK    1  A    between atoms: _1  and  _3
REMARK    2  A    between atoms: _3  and  _4
REMARK    3  A    between atoms: _3  and  _6
REMARK    4  A    between atoms: _6  and  _7
REMARK    5  A    between atoms: _7  and  _8
REMARK    6  A    between atoms: _8  and  _9
REMARK    7  A    between atoms: _18  and  _20
REMARK    8  A    between atoms: _20  and  _21
REMARK    9  A    between atoms: _20  and  _23
REMARK   10  A    between atoms: _26  and  _28
REMARK   11  A    between atoms: _28  and  _29
REMARK   12  A    between atoms: _28  and  _31
REMARK   13  A    between atoms: _31  and  _32
REMARK   14  A    between atoms: _32  and  _33
REMARK   15  A    between atoms: _33  and  _34
REMARK   16  A    between atoms: _43  and  _45
REMARK   17  A    between atoms: _45  and  _46
REMARK   18  A    between atoms: _45  and  _48
REMARK   19  A    between atoms: _48  and  _49
REMARK   20  A    between atoms: _51  and  _53
REMARK   21  A    between atoms: _53  and  _54
REMARK   22  A    between atoms: _53  and  _56
REMARK   23  A    between atoms: _56  and  _57
REMARK   24  A    between atoms: _62  and  _64
REMARK   25  A    between atoms: _64  and  _65
REMARK   26  A    between atoms: _64  and  _67
REMARK   27  A    between atoms: _67  and  _68
REMARK   28  A    between atoms: _73  and  _74
REMARK   29  A    between atoms: _76  and  _78
REMARK   30  A    between atoms: _78  and  _79
REMARK   31  A    between atoms: _78  and  _81
REMARK   32  A    between atoms: _81  and  _82
REMARK   33  A    between atoms: _82  and  _83
REMARK   34  A    between atoms: _86  and  _88
REMARK   35  A    between atoms: _88  and  _89
REMARK   36  A    between atoms: _88  and  _91
REMARK   37  A    between atoms: _91  and  _92
REMARK   38  A    between atoms: _92  and  _93
REMARK   39  A    between atoms: _93  and  _94
REMARK   40  A    between atoms: _94  and  _95
REMARK   41  A    between atoms: _99  and  _101
REMARK   42  A    between atoms: _101  and  _102
REMARK   43  A    between atoms: _101  and  _104
REMARK   44  A    between atoms: _104  and  _105
REMARK   45  A    between atoms: _110  and  _111
REMARK   46  A    between atoms: _113  and  _115
REMARK   47  A    between atoms: _115  and  _116
REMARK   48  A    between atoms: _115  and  _118
REMARK   49  A    between atoms: _118  and  _119
REMARK   50  A    between atoms: _119  and  _120
REMARK   51  A    between atoms: _120  and  _121
REMARK   52  A    between atoms: _130  and  _132
REMARK   53  A    between atoms: _132  and  _133
REMARK   54  A    between atoms: _136  and  _138
REMARK   55  A    between atoms: _138  and  _139
REMARK   56  A    between atoms: _138  and  _141
REMARK   57  A    between atoms: _141  and  _142
REMARK   58  A    between atoms: _142  and  _258
REMARK   59  A    between atoms: _143  and  _145
REMARK   60  A    between atoms: _145  and  _146
REMARK   61  A    between atoms: _145  and  _148
REMARK   62  A    between atoms: _148  and  _149
REMARK   63  A    between atoms: _149  and  _150
REMARK   64  A    between atoms: _153  and  _155
REMARK   65  A    between atoms: _155  and  _156
REMARK   66  A    between atoms: _155  and  _158
REMARK   67  A    between atoms: _158  and  _159
REMARK   68  A    between atoms: _161  and  _163
REMARK   69  A    between atoms: _163  and  _164
REMARK   70  A    between atoms: _163  and  _166
REMARK   71  A    between atoms: _166  and  _167
REMARK   72  A    between atoms: _172  and  _173
REMARK   73  A    between atoms: _175  and  _177
REMARK   74  A    between atoms: _177  and  _178
REMARK   75  A    between atoms: _177  and  _180
REMARK   76  A    between atoms: _180  and  _181
REMARK   77  A    between atoms: _186  and  _188
REMARK   78  A    between atoms: _188  and  _189
REMARK   79  A    between atoms: _188  and  _191
REMARK   80  A    between atoms: _194  and  _196
REMARK   81  A    between atoms: _196  and  _197
REMARK   82  A    between atoms: _196  and  _199
REMARK   83  A    between atoms: _199  and  _200
REMARK   84  A    between atoms: _200  and  _201
REMARK   85  A    between atoms: _201  and  _202
REMARK   86  A    between atoms: _211  and  _213
REMARK   87  A    between atoms: _213  and  _214
REMARK   88  A    between atoms: _213  and  _216
REMARK   89  A    between atoms: _216  and  _217
REMARK   90  A    between atoms: _222  and  _224
REMARK   91  A    between atoms: _224  and  _225
REMARK   92  A    between atoms: _224  and  _227
REMARK   93  A    between atoms: _227  and  _228
REMARK   94  A    between atoms: _231  and  _233
REMARK   95  A    between atoms: _233  and  _234
REMARK   96  A    between atoms: _236  and  _238
REMARK   97  A    between atoms: _238  and  _239
REMARK   98  A    between atoms: _238  and  _241
REMARK   99  A    between atoms: _241  and  _242
REMARK  100  A    between atoms: _252  and  _254
REMARK  101  A    between atoms: _254  and  _255
REMARK  102  A    between atoms: _254  and  _257
REMARK  103  A    between atoms: _257  and  _258
REMARK  104  A    between atoms: _259  and  _261
REMARK  105  A    between atoms: _261  and  _262
REMARK  106  A    between atoms: _261  and  _264
REMARK  107  A    between atoms: _264  and  _265
REMARK  108  A    between atoms: _268  and  _270
REMARK  109  A    between atoms: _270  and  _271
REMARK  110  A    between atoms: _273  and  _275
REMARK  111  A    between atoms: _275  and  _276
REMARK  112  A    between atoms: _275  and  _278
REMARK  113  A    between atoms: _278  and  _279
REMARK  114  A    between atoms: _284  and  _285
REMARK  115  A    between atoms: _287  and  _289
REMARK  116  A    between atoms: _289  and  _290
REMARK  117  A    between atoms: _289  and  _292
REMARK  118  A    between atoms: _292  and  _293
REMARK  119  A    between atoms: _293  and  _294
REMARK  120  A    between atoms: _294  and  _295
REMARK  121  A    between atoms: _304  and  _306
REMARK  122  A    between atoms: _306  and  _307
REMARK  123  A    between atoms: _306  and  _309
REMARK  124  A    between atoms: _309  and  _310
REMARK  125  A    between atoms: _310  and  _311
REMARK  126  A    between atoms: _311  and  _312
REMARK  127  A    between atoms: _312  and  _313
REMARK  128  A    between atoms: _317  and  _319
REMARK  129  A    between atoms: _319  and  _320
REMARK  130  A    between atoms: _322  and  _324
REMARK  131  A    between atoms: _324  and  _325
REMARK  132  A    between atoms: _328  and  _330
REMARK  133  A    between atoms: _330  and  _331
REMARK  134  A    between atoms: _330  and  _333
REMARK  135  A    between atoms: _333  and  _334
REMARK  136  A    between atoms: _339  and  _341
REMARK  137  A    between atoms: _341  and  _342
REMARK  138  A    between atoms: _345  and  _347
REMARK  139  A    between atoms: _347  and  _348
REMARK  140  A    between atoms: _351  and  _352
REMARK  141  A    between atoms: _357  and  _359
REMARK  142  A    between atoms: _359  and  _360
REMARK  143  A    between atoms: _359  and  _362
REMARK  144  A    between atoms: _362  and  _363
REMARK  145  A    between atoms: _366  and  _368
REMARK  146  A    between atoms: _368  and  _369
REMARK  147  A    between atoms: _368  and  _371
REMARK  148  A    between atoms: _371  and  _372
REMARK  149  A    between atoms: _382  and  _384
REMARK  150  A    between atoms: _384  and  _385
REMARK  151  A    between atoms: _384  and  _387
REMARK  152  A    between atoms: _387  and  _388
REMARK  153  A    between atoms: _394  and  _395
REMARK  154  A    between atoms: _400  and  _402
REMARK  155  A    between atoms: _402  and  _403
REMARK  156  A    between atoms: _402  and  _405
REMARK  157  A    between atoms: _405  and  _406
REMARK  158  A    between atoms: _409  and  _411
REMARK  159  A    between atoms: _411  and  _412
REMARK  160  A    between atoms: _411  and  _414
REMARK  161  A    between atoms: _414  and  _415
REMARK  162  A    between atoms: _417  and  _419
REMARK  163  A    between atoms: _419  and  _420
REMARK  164  A    between atoms: _419  and  _422
REMARK  165  A    between atoms: _422  and  _423
REMARK  166  A    between atoms: _428  and  _430
REMARK  167  A    between atoms: _430  and  _431
REMARK  168  A    between atoms: _430  and  _433
REMARK  169  A    between atoms: _436  and  _438
REMARK  170  A    between atoms: _438  and  _439
REMARK  171  A    between atoms: _438  and  _441
REMARK  172  A    between atoms: _441  and  _442
REMARK  173  A    between atoms: _442  and  _443
REMARK  174  A    between atoms: _449  and  _450
REMARK  175  A    between atoms: _455  and  _457
REMARK  176  A    between atoms: _457  and  _458
REMARK  177  A    between atoms: _457  and  _460
REMARK  178  A    between atoms: _460  and  _461
REMARK  179  A    between atoms: _464  and  _466
REMARK  180  A    between atoms: _466  and  _467
REMARK  181  A    between atoms: _466  and  _469
REMARK  182  A    between atoms: _469  and  _470
REMARK  183  A    between atoms: _473  and  _475
REMARK  184  A    between atoms: _475  and  _476
REMARK  185  A    between atoms: _475  and  _478
REMARK  186  A    between atoms: _478  and  _479
REMARK  187  A    between atoms: _481  and  _483
REMARK  188  A    between atoms: _483  and  _484
REMARK  189  A    between atoms: _483  and  _486
REMARK  190  A    between atoms: _486  and  _487
REMARK  191  A    between atoms: _492  and  _493
REMARK  192  A    between atoms: _495  and  _497
REMARK  193  A    between atoms: _497  and  _498
REMARK  194  A    between atoms: _497  and  _500
REMARK  195  A    between atoms: _500  and  _501
REMARK  196  A    between atoms: _506  and  _508
REMARK  197  A    between atoms: _508  and  _509
REMARK  198  A    between atoms: _508  and  _511
REMARK  199  A    between atoms: _511  and  _512
REMARK  200  A    between atoms: _515  and  _517
REMARK  201  A    between atoms: _517  and  _518
REMARK  202  A    between atoms: _517  and  _520
REMARK  203  A    between atoms: _520  and  _521
REMARK  204  A    between atoms: _531  and  _533
REMARK  205  A    between atoms: _533  and  _534
REMARK  206  A    between atoms: _536  and  _538
REMARK  207  A    between atoms: _538  and  _539
REMARK  208  A    between atoms: _538  and  _541
REMARK  209  A    between atoms: _541  and  _542
REMARK  210  A    between atoms: _547  and  _548
REMARK  211  A    between atoms: _550  and  _552
REMARK  212  A    between atoms: _552  and  _553
REMARK  213  A    between atoms: _552  and  _555
REMARK  214  A    between atoms: _555  and  _556
REMARK  215  A    between atoms: _556  and  _557
REMARK  216  A    between atoms: _557  and  _558
REMARK  217  A    between atoms: _567  and  _569
REMARK  218  A    between atoms: _569  and  _570
REMARK  219  A    between atoms: _569  and  _572
REMARK  220  A    between atoms: _572  and  _573
REMARK  221  A    between atoms: _573  and  _574
REMARK  222  A    between atoms: _574  and  _575
REMARK  223  A    between atoms: _575  and  _576
REMARK  224  A    between atoms: _580  and  _582
REMARK  225  A    between atoms: _582  and  _583
REMARK  226  A    between atoms: _585  and  _587
REMARK  227  A    between atoms: _587  and  _588
REMARK  228  A    between atoms: _591  and  _593
REMARK  229  A    between atoms: _593  and  _594
REMARK  230  A    between atoms: _593  and  _596
REMARK  231  A    between atoms: _596  and  _597
REMARK  232  A    between atoms: _602  and  _604
REMARK  233  A    between atoms: _604  and  _605
REMARK  234  A    between atoms: _608  and  _610
REMARK  235  A    between atoms: _610  and  _611
REMARK  236  A    between atoms: _614  and  _615
REMARK  237  A    between atoms: _620  and  _622
REMARK  238  A    between atoms: _622  and  _623
REMARK  239  A    between atoms: _622  and  _625
REMARK  240  A    between atoms: _625  and  _626
REMARK  241  A    between atoms: _629  and  _631
REMARK  242  A    between atoms: _631  and  _632
REMARK  243  A    between atoms: _631  and  _634
REMARK  244  A    between atoms: _634  and  _635
REMARK  245  A    between atoms: _645  and  _647
REMARK  246  A    between atoms: _647  and  _648
REMARK  247  A    between atoms: _647  and  _650
REMARK  248  A    between atoms: _650  and  _651
REMARK  249  A    between atoms: _657  and  _658
REMARK  250  A    between atoms: _663  and  _665
REMARK  251  A    between atoms: _665  and  _666
REMARK  252  A    between atoms: _665  and  _668
REMARK  253  A    between atoms: _668  and  _669
REMARK  254  A    between atoms: _672  and  _674
REMARK  255  A    between atoms: _674  and  _675
REMARK  256  A    between atoms: _674  and  _677
REMARK  257  A    between atoms: _677  and  _678
REMARK  258  A    between atoms: _678  and  _679
REMARK  259  A    between atoms: _682  and  _684
REMARK  260  A    between atoms: _684  and  _685
REMARK  261  A    between atoms: _684  and  _687
REMARK  262  A    between atoms: _687  and  _688
REMARK  263  A    between atoms: _688  and  _689
REMARK  264  A    between atoms: _689  and  _690
REMARK  265  A    between atoms: _690  and  _691
REMARK  266  A    between atoms: _695  and  _697
REMARK  267  A    between atoms: _697  and  _698
REMARK  268  A    between atoms: _700  and  _702
REMARK  269  A    between atoms: _702  and  _703
REMARK  270  A    between atoms: _702  and  _705
REMARK  271  A    between atoms: _705  and  _706
REMARK  272  A    between atoms: _711  and  _713
REMARK  273  A    between atoms: _713  and  _714
REMARK  274  A    between atoms: _713  and  _716
REMARK  275  A    between atoms: _716  and  _717
REMARK  276  A    between atoms: _717  and  _718
REMARK  277  A    between atoms: _718  and  _719
REMARK  278  A    between atoms: _728  and  _730
REMARK  279  A    between atoms: _730  and  _731
REMARK  280  A    between atoms: _730  and  _733
REMARK  281  A    between atoms: _733  and  _734
REMARK  282  A    between atoms: _737  and  _739
REMARK  283  A    between atoms: _739  and  _740
REMARK  284  A    between atoms: _739  and  _742
REMARK  285  A    between atoms: _745  and  _747
REMARK  286  A    between atoms: _747  and  _748
REMARK  287  A    between atoms: _747  and  _750
REMARK  288  A    between atoms: _750  and  _751
REMARK  289  A    between atoms: _751  and  _752
REMARK  290  A    between atoms: _758  and  _759
REMARK  291  A    between atoms: _764  and  _766
REMARK  292  A    between atoms: _766  and  _767
REMARK  293  A    between atoms: _766  and  _769
REMARK  294  A    between atoms: _769  and  _770
REMARK  295  A    between atoms: _773  and  _775
REMARK  296  A    between atoms: _775  and  _776
REMARK  297  A    between atoms: _775  and  _778
REMARK  298  A    between atoms: _778  and  _779
REMARK  299  A    between atoms: _782  and  _784
REMARK  300  A    between atoms: _784  and  _785
REMARK  301  A    between atoms: _784  and  _787
REMARK  302  A    between atoms: _787  and  _788
REMARK  303  A    between atoms: _790  and  _792
REMARK  304  A    between atoms: _792  and  _793
REMARK  305  A    between atoms: _792  and  _795
REMARK  306  A    between atoms: _795  and  _796
REMARK  307  A    between atoms: _796  and  _797
REMARK  308  A    between atoms: _797  and  _798
REMARK  309  A    between atoms: _807  and  _809
REMARK  310  A    between atoms: _809  and  _810
REMARK                            x       y       z     vdW  Elec       q    Type
REMARK                         _______ _______ _______ _____ _____    ______ ____
ROOT
ATOM      1  O   HOH     1     -23.082 -20.827 -23.796  0.00  0.00    +0.000 OA
ENDROOT
TORSDOF 0
REMARK  Name = ../refined-set-2016/3rt4/3rt4_pocket.pdb
REMARK  310 active torsions:
REMARK  status: ('A' for Active; 'I' for Inactive)
REMARK    1  A    between atoms: _1  and  _3
REMARK    2  A    between atoms: _3  and  _4
REMARK    3  A    between atoms: _3  and  _6
REMARK    4  A    between atoms: _6  and  _7
REMARK    5  A    between atoms: _7  and  _8
REMARK    6  A    between atoms: _8  and  _9
REMARK    7  A    between atoms: _18  and  _20
REMARK    8  A    between atoms: _20  and  _21
REMARK    9  A    between atoms: _20  and  _23
REMARK   10  A    between atoms: _26  and  _28
REMARK   11  A    between atoms: _28  and  _29
REMARK   12  A    between atoms: _28  and  _31
REMARK   13  A    between atoms: _31  and  _32
REMARK   14  A    between atoms: _32  and  _33
REMARK   15  A    between atoms: _33  and  _34
REMARK   16  A    between atoms: _43  and  _45
REMARK   17  A    between atoms: _45  and  _46
REMARK   18  A    between atoms: _45  and  _48
REMARK   19  A    between atoms: _48  and  _49
REMARK   20  A    between atoms: _51  and  _53
REMARK   21  A    between atoms: _53  and  _54
REMARK   22  A    between atoms: _53  and  _56
REMARK   23  A    between atoms: _56  and  _57
REMARK   24  A    between atoms: _62  and  _64
REMARK   25  A    between atoms: _64  and  _65
REMARK   26  A    between atoms: _64  and  _67
REMARK   27  A    between atoms: _67  and  _68
REMARK   28  A    between atoms: _73  and  _74
REMARK   29  A    between atoms: _76  and  _78
REMARK   30  A    between atoms: _78  and  _79
REMARK   31  A    between atoms: _78  and  _81
REMARK   32  A    between atoms: _81  and  _82
REMARK   33  A    between atoms: _82  and  _83
REMARK   34  A    between atoms: _86  and  _88
REMARK   35  A    between atoms: _88  and  _89
REMARK   36  A    between atoms: _88  and  _91
REMARK   37  A    between atoms: _91  and  _92
REMARK   38  A    between atoms: _92  and  _93
REMARK   39  A    between atoms: _93  and  _94
REMARK   40  A    between atoms: _94  and  _95
REMARK   41  A    between atoms: _99  and  _101
REMARK   42  A    between atoms: _101  and  _102
REMARK   43  A    between atoms: _101  and  _104
REMARK   44  A    between atoms: _104  and  _105
REMARK   45  A    between atoms: _110  and  _111
REMARK   46  A    between atoms: _113  and  _115
REMARK   47  A    between atoms: _115  and  _116
REMARK   48  A    between atoms: _115  and  _118
REMARK   49  A    between atoms: _118  and  _119
REMARK   50  A    between atoms: _119  and  _120
REMARK   51  A    between atoms: _120  and  _121
REMARK   52  A    between atoms: _130  and  _132
REMARK   53  A    between atoms: _132  and  _133
REMARK   54  A    between atoms: _136  and  _138
REMARK   55  A    between atoms: _138  and  _139
REMARK   56  A    between atoms: _138  and  _141
REMARK   57  A    between atoms: _141  and  _142
REMARK   58  A    between atoms: _142  and  _258
REMARK   59  A    between atoms: _143  and  _145
REMARK   60  A    between atoms: _145  and  _146
REMARK   61  A    between atoms: _145  and  _148
REMARK   62  A    between atoms: _148  and  _149
REMARK   63  A    between atoms: _149  and  _150
REMARK   64  A    between atoms: _153  and  _155
REMARK   65  A    between atoms: _155  and  _156
REMARK   66  A    between atoms: _155  and  _158
REMARK   67  A    between atoms: _158  and  _159
REMARK   68  A    between atoms: _161  and  _163
REMARK   69  A    between atoms: _163  and  _164
REMARK   70  A    between atoms: _163  and  _166
REMARK   71  A    between atoms: _166  and  _167
REMARK   72  A    between atoms: _172  and  _173
REMARK   73  A    between atoms: _175  and  _177
REMARK   74  A    between atoms: _177  and  _178
REMARK   75  A    between atoms: _177  and  _180
REMARK   76  A    between atoms: _180  and  _181
REMARK   77  A    between atoms: _186  and  _188
REMARK   78  A    between atoms: _188  and  _189
REMARK   79  A    between atoms: _188  and  _191
REMARK   80  A    between atoms: _194  and  _196
REMARK   81  A    between atoms: _196  and  _197
REMARK   82  A    between atoms: _196  and  _199
REMARK   83  A    between atoms: _199  and  _200
REMARK   84  A    between atoms: _200  and  _201
REMARK   85  A    between atoms: _201  and  _202
REMARK   86  A    between atoms: _211  and  _213
REMARK   87  A    between atoms: _213  and  _214
REMARK   88  A    between atoms: _213  and  _216
REMARK   89  A    between atoms: _216  and  _217
REMARK   90  A    between atoms: _222  and  _224
REMARK   91  A    between atoms: _224  and  _225
REMARK   92  A    between atoms: _224  and  _227
REMARK   93  A    between atoms: _227  and  _228
REMARK   94  A    between atoms: _231  and  _233
REMARK   95  A    between atoms: _233  and  _234
REMARK   96  A    between atoms: _236  and  _238
REMARK   97  A    between atoms: _238  and  _239
REMARK   98  A    between atoms: _238  and  _241
REMARK   99  A    between atoms: _241  and  _242
REMARK  100  A    between atoms: _252  and  _254
REMARK  101  A    between atoms: _254  and  _255
REMARK  102  A    between atoms: _254  and  _257
REMARK  103  A    between atoms: _257  and  _258
REMARK  104  A    between atoms: _259  and  _261
REMARK  105  A    between atoms: _261  and  _262
REMARK  106  A    between atoms: _261  and  _264
REMARK  107  A    between atoms: _264  and  _265
REMARK  108  A    between atoms: _268  and  _270
REMARK  109  A    between atoms: _270  and  _271
REMARK  110  A    between atoms: _273  and  _275
REMARK  111  A    between atoms: _275  and  _276
REMARK  112  A    between atoms: _275  and  _278
REMARK  113  A    between atoms: _278  and  _279
REMARK  114  A    between atoms: _284  and  _285
REMARK  115  A    between atoms: _287  and  _289
REMARK  116  A    between atoms: _289  and  _290
REMARK  117  A    between atoms: _289  and  _292
REMARK  118  A    between atoms: _292  and  _293
REMARK  119  A    between atoms: _293  and  _294
REMARK  120  A    between atoms: _294  and  _295
REMARK  121  A    between atoms: _304  and  _306
REMARK  122  A    between atoms: _306  and  _307
REMARK  123  A    between atoms: _306  and  _309
REMARK  124  A    between atoms: _309  and  _310
REMARK  125  A    between atoms: _310  and  _311
REMARK  126  A    between atoms: _311  and  _312
REMARK  127  A    between atoms: _312  and  _313
REMARK  128  A    between atoms: _317  and  _319
REMARK  129  A    between atoms: _319  and  _320
REMARK  130  A    between atoms: _322  and  _324
REMARK  131  A    between atoms: _324  and  _325
REMARK  132  A    between atoms: _328  and  _330
REMARK  133  A    between atoms: _330  and  _331
REMARK  134  A    between atoms: _330  and  _333
REMARK  135  A    between atoms: _333  and  _334
REMARK  136  A    between atoms: _339  and  _341
REMARK  137  A    between atoms: _341  and  _342
REMARK  138  A    between atoms: _345  and  _347
REMARK  139  A    between atoms: _347  and  _348
REMARK  140  A    between atoms: _351  and  _352
REMARK  141  A    between atoms: _357  and  _359
REMARK  142  A    between atoms: _359  and  _360
REMARK  143  A    between atoms: _359  and  _362
REMARK  144  A    between atoms: _362  and  _363
REMARK  145  A    between atoms: _366  and  _368
REMARK  146  A    between atoms: _368  and  _369
REMARK  147  A    between atoms: _368  and  _371
REMARK  148  A    between atoms: _371  and  _372
REMARK  149  A    between atoms: _382  and  _384
REMARK  150  A    between atoms: _384  and  _385
REMARK  151  A    between atoms: _384  and  _387
REMARK  152  A    between atoms: _387  and  _388
REMARK  153  A    between atoms: _394  and  _395
REMARK  154  A    between atoms: _400  and  _402
REMARK  155  A    between atoms: _402  and  _403
REMARK  156  A    between atoms: _402  and  _405
REMARK  157  A    between atoms: _405  and  _406
REMARK  158  A    between atoms: _409  and  _411
REMARK  159  A    between atoms: _411  and  _412
REMARK  160  A    between atoms: _411  and  _414
REMARK  161  A    between atoms: _414  and  _415
REMARK  162  A    between atoms: _417  and  _419
REMARK  163  A    between atoms: _419  and  _420
REMARK  164  A    between atoms: _419  and  _422
REMARK  165  A    between atoms: _422  and  _423
REMARK  166  A    between atoms: _428  and  _430
REMARK  167  A    between atoms: _430  and  _431
REMARK  168  A    between atoms: _430  and  _433
REMARK  169  A    between atoms: _436  and  _438
REMARK  170  A    between atoms: _438  and  _439
REMARK  171  A    between atoms: _438  and  _441
REMARK  172  A    between atoms: _441  and  _442
REMARK  173  A    between atoms: _442  and  _443
REMARK  174  A    between atoms: _449  and  _450
REMARK  175  A    between atoms: _455  and  _457
REMARK  176  A    between atoms: _457  and  _458
REMARK  177  A    between atoms: _457  and  _460
REMARK  178  A    between atoms: _460  and  _461
REMARK  179  A    between atoms: _464  and  _466
REMARK  180  A    between atoms: _466  and  _467
REMARK  181  A    between atoms: _466  and  _469
REMARK  182  A    between atoms: _469  and  _470
REMARK  183  A    between atoms: _473  and  _475
REMARK  184  A    between atoms: _475  and  _476
REMARK  185  A    between atoms: _475  and  _478
REMARK  186  A    between atoms: _478  and  _479
REMARK  187  A    between atoms: _481  and  _483
REMARK  188  A    between atoms: _483  and  _484
REMARK  189  A    between atoms: _483  and  _486
REMARK  190  A    between atoms: _486  and  _487
REMARK  191  A    between atoms: _492  and  _493
REMARK  192  A    between atoms: _495  and  _497
REMARK  193  A    between atoms: _497  and  _498
REMARK  194  A    between atoms: _497  and  _500
REMARK  195  A    between atoms: _500  and  _501
REMARK  196  A    between atoms: _506  and  _508
REMARK  197  A    between atoms: _508  and  _509
REMARK  198  A    between atoms: _508  and  _511
REMARK  199  A    between atoms: _511  and  _512
REMARK  200  A    between atoms: _515  and  _517
REMARK  201  A    between atoms: _517  and  _518
REMARK  202  A    between atoms: _517  and  _520
REMARK  203  A    between atoms: _520  and  _521
REMARK  204  A    between atoms: _531  and  _533
REMARK  205  A    between atoms: _533  and  _534
REMARK  206  A    between atoms: _536  and  _538
REMARK  207  A    between atoms: _538  and  _539
REMARK  208  A    between atoms: _538  and  _541
REMARK  209  A    between atoms: _541  and  _542
REMARK  210  A    between atoms: _547  and  _548
REMARK  211  A    between atoms: _550  and  _552
REMARK  212  A    between atoms: _552  and  _553
REMARK  213  A    between atoms: _552  and  _555
REMARK  214  A    between atoms: _555  and  _556
REMARK  215  A    between atoms: _556  and  _557
REMARK  216  A    between atoms: _557  and  _558
REMARK  217  A    between atoms: _567  and  _569
REMARK  218  A    between atoms: _569  and  _570
REMARK  219  A    between atoms: _569  and  _572
REMARK  220  A    between atoms: _572  and  _573
REMARK  221  A    between atoms: _573  and  _574
REMARK  222  A    between atoms: _574  and  _575
REMARK  223  A    between atoms: _575  and  _576
REMARK  224  A    between atoms: _580  and  _582
REMARK  225  A    between atoms: _582  and  _583
REMARK  226  A    between atoms: _585  and  _587
REMARK  227  A    between atoms: _587  and  _588
REMARK  228  A    between atoms: _591  and  _593
REMARK  229  A    between atoms: _593  and  _594
REMARK  230  A    between atoms: _593  and  _596
REMARK  231  A    between atoms: _596  and  _597
REMARK  232  A    between atoms: _602  and  _604
REMARK  233  A    between atoms: _604  and  _605
REMARK  234  A    between atoms: _608  and  _610
REMARK  235  A    between atoms: _610  and  _611
REMARK  236  A    between atoms: _614  and  _615
REMARK  237  A    between atoms: _620  and  _622
REMARK  238  A    between atoms: _622  and  _623
REMARK  239  A    between atoms: _622  and  _625
REMARK  240  A    between atoms: _625  and  _626
REMARK  241  A    between atoms: _629  and  _631
REMARK  242  A    between atoms: _631  and  _632
REMARK  243  A    between atoms: _631  and  _634
REMARK  244  A    between atoms: _634  and  _635
REMARK  245  A    between atoms: _645  and  _647
REMARK  246  A    between atoms: _647  and  _648
REMARK  247  A    between atoms: _647  and  _650
REMARK  248  A    between atoms: _650  and  _651
REMARK  249  A    between atoms: _657  and  _658
REMARK  250  A    between atoms: _663  and  _665
REMARK  251  A    between atoms: _665  and  _666
REMARK  252  A    between atoms: _665  and  _668
REMARK  253  A    between atoms: _668  and  _669
REMARK  254  A    between atoms: _672  and  _674
REMARK  255  A    between atoms: _674  and  _675
REMARK  256  A    between atoms: _674  and  _677
REMARK  257  A    between atoms: _677  and  _678
REMARK  258  A    between atoms: _678  and  _679
REMARK  259  A    between atoms: _682  and  _684
REMARK  260  A    between atoms: _684  and  _685
REMARK  261  A    between atoms: _684  and  _687
REMARK  262  A    between atoms: _687  and  _688
REMARK  263  A    between atoms: _688  and  _689
REMARK  264  A    between atoms: _689  and  _690
REMARK  265  A    between atoms: _690  and  _691
REMARK  266  A    between atoms: _695  and  _697
REMARK  267  A    between atoms: _697  and  _698
REMARK  268  A    between atoms: _700  and  _702
REMARK  269  A    between atoms: _702  and  _703
REMARK  270  A    between atoms: _702  and  _705
REMARK  271  A    between atoms: _705  and  _706
REMARK  272  A    between atoms: _711  and  _713
REMARK  273  A    between atoms: _713  and  _714
REMARK  274  A    between atoms: _713  and  _716
REMARK  275  A    between atoms: _716  and  _717
REMARK  276  A    between atoms: _717  and  _718
REMARK  277  A    between atoms: _718  and  _719
REMARK  278  A    between atoms: _728  and  _730
REMARK  279  A    between atoms: _730  and  _731
REMARK  280  A    between atoms: _730  and  _733
REMARK  281  A    between atoms: _733  and  _734
REMARK  282  A    between atoms: _737  and  _739
REMARK  283  A    between atoms: _739  and  _740
REMARK  284  A    between atoms: _739  and  _742
REMARK  285  A    between atoms: _745  and  _747
REMARK  286  A    between atoms: _747  and  _748
REMARK  287  A    between atoms: _747  and  _750
REMARK  288  A    between atoms: _750  and  _751
REMARK  289  A    between atoms: _751  and  _752
REMARK  290  A    between atoms: _758  and  _759
REMARK  291  A    between atoms: _764  and  _766
REMARK  292  A    between atoms: _766  and  _767
REMARK  293  A    between atoms: _766  and  _769
REMARK  294  A    between atoms: _769  and  _770
REMARK  295  A    between atoms: _773  and  _775
REMARK  296  A    between atoms: _775  and  _776
REMARK  297  A    between atoms: _775  and  _778
REMARK  298  A    between atoms: _778  and  _779
REMARK  299  A    between atoms: _782  and  _784
REMARK  300  A    between atoms: _784  and  _785
REMARK  301  A    between atoms: _784  and  _787
REMARK  302  A    between atoms: _787  and  _788
REMARK  303  A    between atoms: _790  and  _792
REMARK  304  A    between atoms: _792  and  _793
REMARK  305  A    between atoms: _792  and  _795
REMARK  306  A    between atoms: _795  and  _796
REMARK  307  A    between atoms: _796  and  _797
REMARK  308  A    between atoms: _797  and  _798
REMARK  309  A    between atoms: _807  and  _809
REMARK  310  A    between atoms: _809  and  _810
REMARK                            x       y       z     vdW  Elec       q    Type
REMARK                         _______ _______ _______ _____ _____    ______ ____
ROOT
ATOM      1  O   HOH     1     -18.357 -22.141 -20.746  0.00  0.00    +0.000 OA
ENDROOT
TORSDOF 0
REMARK  Name = ../refined-set-2016/3rt4/3rt4_pocket.pdb
REMARK  310 active torsions:
REMARK  status: ('A' for Active; 'I' for Inactive)
REMARK    1  A    between atoms: _1  and  _3
REMARK    2  A    between atoms: _3  and  _4
REMARK    3  A    between atoms: _3  and  _6
REMARK    4  A    between atoms: _6  and  _7
REMARK    5  A    between atoms: _7  and  _8
REMARK    6  A    between atoms: _8  and  _9
REMARK    7  A    between atoms: _18  and  _20
REMARK    8  A    between atoms: _20  and  _21
REMARK    9  A    between atoms: _20  and  _23
REMARK   10  A    between atoms: _26  and  _28
REMARK   11  A    between atoms: _28  and  _29
REMARK   12  A    between atoms: _28  and  _31
REMARK   13  A    between atoms: _31  and  _32
REMARK   14  A    between atoms: _32  and  _33
REMARK   15  A    between atoms: _33  and  _34
REMARK   16  A    between atoms: _43  and  _45
REMARK   17  A    between atoms: _45  and  _46
REMARK   18  A    between atoms: _45  and  _48
REMARK   19  A    between atoms: _48  and  _49
REMARK   20  A    between atoms: _51  and  _53
REMARK   21  A    between atoms: _53  and  _54
REMARK   22  A    between atoms: _53  and  _56
REMARK   23  A    between atoms: _56  and  _57
REMARK   24  A    between atoms: _62  and  _64
REMARK   25  A    between atoms: _64  and  _65
REMARK   26  A    between atoms: _64  and  _67
REMARK   27  A    between atoms: _67  and  _68
REMARK   28  A    between atoms: _73  and  _74
REMARK   29  A    between atoms: _76  and  _78
REMARK   30  A    between atoms: _78  and  _79
REMARK   31  A    between atoms: _78  and  _81
REMARK   32  A    between atoms: _81  and  _82
REMARK   33  A    between atoms: _82  and  _83
REMARK   34  A    between atoms: _86  and  _88
REMARK   35  A    between atoms: _88  and  _89
REMARK   36  A    between atoms: _88  and  _91
REMARK   37  A    between atoms: _91  and  _92
REMARK   38  A    between atoms: _92  and  _93
REMARK   39  A    between atoms: _93  and  _94
REMARK   40  A    between atoms: _94  and  _95
REMARK   41  A    between atoms: _99  and  _101
REMARK   42  A    between atoms: _101  and  _102
REMARK   43  A    between atoms: _101  and  _104
REMARK   44  A    between atoms: _104  and  _105
REMARK   45  A    between atoms: _110  and  _111
REMARK   46  A    between atoms: _113  and  _115
REMARK   47  A    between atoms: _115  and  _116
REMARK   48  A    between atoms: _115  and  _118
REMARK   49  A    between atoms: _118  and  _119
REMARK   50  A    between atoms: _119  and  _120
REMARK   51  A    between atoms: _120  and  _121
REMARK   52  A    between atoms: _130  and  _132
REMARK   53  A    between atoms: _132  and  _133
REMARK   54  A    between atoms: _136  and  _138
REMARK   55  A    between atoms: _138  and  _139
REMARK   56  A    between atoms: _138  and  _141
REMARK   57  A    between atoms: _141  and  _142
REMARK   58  A    between atoms: _142  and  _258
REMARK   59  A    between atoms: _143  and  _145
REMARK   60  A    between atoms: _145  and  _146
REMARK   61  A    between atoms: _145  and  _148
REMARK   62  A    between atoms: _148  and  _149
REMARK   63  A    between atoms: _149  and  _150
REMARK   64  A    between atoms: _153  and  _155
REMARK   65  A    between atoms: _155  and  _156
REMARK   66  A    between atoms: _155  and  _158
REMARK   67  A    between atoms: _158  and  _159
REMARK   68  A    between atoms: _161  and  _163
REMARK   69  A    between atoms: _163  and  _164
REMARK   70  A    between atoms: _163  and  _166
REMARK   71  A    between atoms: _166  and  _167
REMARK   72  A    between atoms: _172  and  _173
REMARK   73  A    between atoms: _175  and  _177
REMARK   74  A    between atoms: _177  and  _178
REMARK   75  A    between atoms: _177  and  _180
REMARK   76  A    between atoms: _180  and  _181
REMARK   77  A    between atoms: _186  and  _188
REMARK   78  A    between atoms: _188  and  _189
REMARK   79  A    between atoms: _188  and  _191
REMARK   80  A    between atoms: _194  and  _196
REMARK   81  A    between atoms: _196  and  _197
REMARK   82  A    between atoms: _196  and  _199
REMARK   83  A    between atoms: _199  and  _200
REMARK   84  A    between atoms: _200  and  _201
REMARK   85  A    between atoms: _201  and  _202
REMARK   86  A    between atoms: _211  and  _213
REMARK   87  A    between atoms: _213  and  _214
REMARK   88  A    between atoms: _213  and  _216
REMARK   89  A    between atoms: _216  and  _217
REMARK   90  A    between atoms: _222  and  _224
REMARK   91  A    between atoms: _224  and  _225
REMARK   92  A    between atoms: _224  and  _227
REMARK   93  A    between atoms: _227  and  _228
REMARK   94  A    between atoms: _231  and  _233
REMARK   95  A    between atoms: _233  and  _234
REMARK   96  A    between atoms: _236  and  _238
REMARK   97  A    between atoms: _238  and  _239
REMARK   98  A    between atoms: _238  and  _241
REMARK   99  A    between atoms: _241  and  _242
REMARK  100  A    between atoms: _252  and  _254
REMARK  101  A    between atoms: _254  and  _255
REMARK  102  A    between atoms: _254  and  _257
REMARK  103  A    between atoms: _257  and  _258
REMARK  104  A    between atoms: _259  and  _261
REMARK  105  A    between atoms: _261  and  _262
REMARK  106  A    between atoms: _261  and  _264
REMARK  107  A    between atoms: _264  and  _265
REMARK  108  A    between atoms: _268  and  _270
REMARK  109  A    between atoms: _270  and  _271
REMARK  110  A    between atoms: _273  and  _275
REMARK  111  A    between atoms: _275  and  _276
REMARK  112  A    between atoms: _275  and  _278
REMARK  113  A    between atoms: _278  and  _279
REMARK  114  A    between atoms: _284  and  _285
REMARK  115  A    between atoms: _287  and  _289
REMARK  116  A    between atoms: _289  and  _290
REMARK  117  A    between atoms: _289  and  _292
REMARK  118  A    between atoms: _292  and  _293
REMARK  119  A    between atoms: _293  and  _294
REMARK  120  A    between atoms: _294  and  _295
REMARK  121  A    between atoms: _304  and  _306
REMARK  122  A    between atoms: _306  and  _307
REMARK  123  A    between atoms: _306  and  _309
REMARK  124  A    between atoms: _309  and  _310
REMARK  125  A    between atoms: _310  and  _311
REMARK  126  A    between atoms: _311  and  _312
REMARK  127  A    between atoms: _312  and  _313
REMARK  128  A    between atoms: _317  and  _319
REMARK  129  A    between atoms: _319  and  _320
REMARK  130  A    between atoms: _322  and  _324
REMARK  131  A    between atoms: _324  and  _325
REMARK  132  A    between atoms: _328  and  _330
REMARK  133  A    between atoms: _330  and  _331
REMARK  134  A    between atoms: _330  and  _333
REMARK  135  A    between atoms: _333  and  _334
REMARK  136  A    between atoms: _339  and  _341
REMARK  137  A    between atoms: _341  and  _342
REMARK  138  A    between atoms: _345  and  _347
REMARK  139  A    between atoms: _347  and  _348
REMARK  140  A    between atoms: _351  and  _352
REMARK  141  A    between atoms: _357  and  _359
REMARK  142  A    between atoms: _359  and  _360
REMARK  143  A    between atoms: _359  and  _362
REMARK  144  A    between atoms: _362  and  _363
REMARK  145  A    between atoms: _366  and  _368
REMARK  146  A    between atoms: _368  and  _369
REMARK  147  A    between atoms: _368  and  _371
REMARK  148  A    between atoms: _371  and  _372
REMARK  149  A    between atoms: _382  and  _384
REMARK  150  A    between atoms: _384  and  _385
REMARK  151  A    between atoms: _384  and  _387
REMARK  152  A    between atoms: _387  and  _388
REMARK  153  A    between atoms: _394  and  _395
REMARK  154  A    between atoms: _400  and  _402
REMARK  155  A    between atoms: _402  and  _403
REMARK  156  A    between atoms: _402  and  _405
REMARK  157  A    between atoms: _405  and  _406
REMARK  158  A    between atoms: _409  and  _411
REMARK  159  A    between atoms: _411  and  _412
REMARK  160  A    between atoms: _411  and  _414
REMARK  161  A    between atoms: _414  and  _415
REMARK  162  A    between atoms: _417  and  _419
REMARK  163  A    between atoms: _419  and  _420
REMARK  164  A    between atoms: _419  and  _422
REMARK  165  A    between atoms: _422  and  _423
REMARK  166  A    between atoms: _428  and  _430
REMARK  167  A    between atoms: _430  and  _431
REMARK  168  A    between atoms: _430  and  _433
REMARK  169  A    between atoms: _436  and  _438
REMARK  170  A    between atoms: _438  and  _439
REMARK  171  A    between atoms: _438  and  _441
REMARK  172  A    between atoms: _441  and  _442
REMARK  173  A    between atoms: _442  and  _443
REMARK  174  A    between atoms: _449  and  _450
REMARK  175  A    between atoms: _455  and  _457
REMARK  176  A    between atoms: _457  and  _458
REMARK  177  A    between atoms: _457  and  _460
REMARK  178  A    between atoms: _460  and  _461
REMARK  179  A    between atoms: _464  and  _466
REMARK  180  A    between atoms: _466  and  _467
REMARK  181  A    between atoms: _466  and  _469
REMARK  182  A    between atoms: _469  and  _470
REMARK  183  A    between atoms: _473  and  _475
REMARK  184  A    between atoms: _475  and  _476
REMARK  185  A    between atoms: _475  and  _478
REMARK  186  A    between atoms: _478  and  _479
REMARK  187  A    between atoms: _481  and  _483
REMARK  188  A    between atoms: _483  and  _484
REMARK  189  A    between atoms: _483  and  _486
REMARK  190  A    between atoms: _486  and  _487
REMARK  191  A    between atoms: _492  and  _493
REMARK  192  A    between atoms: _495  and  _497
REMARK  193  A    between atoms: _497  and  _498
REMARK  194  A    between atoms: _497  and  _500
REMARK  195  A    between atoms: _500  and  _501
REMARK  196  A    between atoms: _506  and  _508
REMARK  197  A    between atoms: _508  and  _509
REMARK  198  A    between atoms: _508  and  _511
REMARK  199  A    between atoms: _511  and  _512
REMARK  200  A    between atoms: _515  and  _517
REMARK  201  A    between atoms: _517  and  _518
REMARK  202  A    between atoms: _517  and  _520
REMARK  203  A    between atoms: _520  and  _521
REMARK  204  A    between atoms: _531  and  _533
REMARK  205  A    between atoms: _533  and  _534
REMARK  206  A    between atoms: _536  and  _538
REMARK  207  A    between atoms: _538  and  _539
REMARK  208  A    between atoms: _538  and  _541
REMARK  209  A    between atoms: _541  and  _542
REMARK  210  A    between atoms: _547  and  _548
REMARK  211  A    between atoms: _550  and  _552
REMARK  212  A    between atoms: _552  and  _553
REMARK  213  A    between atoms: _552  and  _555
REMARK  214  A    between atoms: _555  and  _556
REMARK  215  A    between atoms: _556  and  _557
REMARK  216  A    between atoms: _557  and  _558
REMARK  217  A    between atoms: _567  and  _569
REMARK  218  A    between atoms: _569  and  _570
REMARK  219  A    between atoms: _569  and  _572
REMARK  220  A    between atoms: _572  and  _573
REMARK  221  A    between atoms: _573  and  _574
REMARK  222  A    between atoms: _574  and  _575
REMARK  223  A    between atoms: _575  and  _576
REMARK  224  A    between atoms: _580  and  _582
REMARK  225  A    between atoms: _582  and  _583
REMARK  226  A    between atoms: _585  and  _587
REMARK  227  A    between atoms: _587  and  _588
REMARK  228  A    between atoms: _591  and  _593
REMARK  229  A    between atoms: _593  and  _594
REMARK  230  A    between atoms: _593  and  _596
REMARK  231  A    between atoms: _596  and  _597
REMARK  232  A    between atoms: _602  and  _604
REMARK  233  A    between atoms: _604  and  _605
REMARK  234  A    between atoms: _608  and  _610
REMARK  235  A    between atoms: _610  and  _611
REMARK  236  A    between atoms: _614  and  _615
REMARK  237  A    between atoms: _620  and  _622
REMARK  238  A    between atoms: _622  and  _623
REMARK  239  A    between atoms: _622  and  _625
REMARK  240  A    between atoms: _625  and  _626
REMARK  241  A    between atoms: _629  and  _631
REMARK  242  A    between atoms: _631  and  _632
REMARK  243  A    between atoms: _631  and  _634
REMARK  244  A    between atoms: _634  and  _635
REMARK  245  A    between atoms: _645  and  _647
REMARK  246  A    between atoms: _647  and  _648
REMARK  247  A    between atoms: _647  and  _650
REMARK  248  A    between atoms: _650  and  _651
REMARK  249  A    between atoms: _657  and  _658
REMARK  250  A    between atoms: _663  and  _665
REMARK  251  A    between atoms: _665  and  _666
REMARK  252  A    between atoms: _665  and  _668
REMARK  253  A    between atoms: _668  and  _669
REMARK  254  A    between atoms: _672  and  _674
REMARK  255  A    between atoms: _674  and  _675
REMARK  256  A    between atoms: _674  and  _677
REMARK  257  A    between atoms: _677  and  _678
REMARK  258  A    between atoms: _678  and  _679
REMARK  259  A    between atoms: _682  and  _684
REMARK  260  A    between atoms: _684  and  _685
REMARK  261  A    between atoms: _684  and  _687
REMARK  262  A    between atoms: _687  and  _688
REMARK  263  A    between atoms: _688  and  _689
REMARK  264  A    between atoms: _689  and  _690
REMARK  265  A    between atoms: _690  and  _691
REMARK  266  A    between atoms: _695  and  _697
REMARK  267  A    between atoms: _697  and  _698
REMARK  268  A    between atoms: _700  and  _702
REMARK  269  A    between atoms: _702  and  _703
REMARK  270  A    between atoms: _702  and  _705
REMARK  271  A    between atoms: _705  and  _706
REMARK  272  A    between atoms: _711  and  _713
REMARK  273  A    between atoms: _713  and  _714
REMARK  274  A    between atoms: _713  and  _716
REMARK  275  A    between atoms: _716  and  _717
REMARK  276  A    between atoms: _717  and  _718
REMARK  277  A    between atoms: _718  and  _719
REMARK  278  A    between atoms: _728  and  _730
REMARK  279  A    between atoms: _730  and  _731
REMARK  280  A    between atoms: _730  and  _733
REMARK  281  A    between atoms: _733  and  _734
REMARK  282  A    between atoms: _737  and  _739
REMARK  283  A    between atoms: _739  and  _740
REMARK  284  A    between atoms: _739  and  _742
REMARK  285  A    between atoms: _745  and  _747
REMARK  286  A    between atoms: _747  and  _748
REMARK  287  A    between atoms: _747  and  _750
REMARK  288  A    between atoms: _750  and  _751
REMARK  289  A    between atoms: _751  and  _752
REMARK  290  A    between atoms: _758  and  _759
REMARK  291  A    between atoms: _764  and  _766
REMARK  292  A    between atoms: _766  and  _767
REMARK  293  A    between atoms: _766  and  _769
REMARK  294  A    between atoms: _769  and  _770
REMARK  295  A    between atoms: _773  and  _775
REMARK  296  A    between atoms: _775  and  _776
REMARK  297  A    between atoms: _775  and  _778
REMARK  298  A    between atoms: _778  and  _779
REMARK  299  A    between atoms: _782  and  _784
REMARK  300  A    between atoms: _784  and  _785
REMARK  301  A    between atoms: _784  and  _787
REMARK  302  A    between atoms: _787  and  _788
REMARK  303  A    between atoms: _790  and  _792
REMARK  304  A    between atoms: _792  and  _793
REMARK  305  A    between atoms: _792  and  _795
REMARK  306  A    between atoms: _795  and  _796
REMARK  307  A    between atoms: _796  and  _797
REMARK  308  A    between atoms: _797  and  _798
REMARK  309  A    between atoms: _807  and  _809
REMARK  310  A    between atoms: _809  and  _810
REMARK                            x       y       z     vdW  Elec       q    Type
REMARK                         _______ _______ _______ _____ _____    ______ ____
ROOT
ATOM      1  O   HOH     1     -32.747 -19.499 -12.802  0.00  0.00    +0.000 OA
ENDROOT
TORSDOF 0
REMARK  Name = ../refined-set-2016/3rt4/3rt4_pocket.pdb
REMARK  310 active torsions:
REMARK  status: ('A' for Active; 'I' for Inactive)
REMARK    1  A    between atoms: _1  and  _3
REMARK    2  A    between atoms: _3  and  _4
REMARK    3  A    between atoms: _3  and  _6
REMARK    4  A    between atoms: _6  and  _7
REMARK    5  A    between atoms: _7  and  _8
REMARK    6  A    between atoms: _8  and  _9
REMARK    7  A    between atoms: _18  and  _20
REMARK    8  A    between atoms: _20  and  _21
REMARK    9  A    between atoms: _20  and  _23
REMARK   10  A    between atoms: _26  and  _28
REMARK   11  A    between atoms: _28  and  _29
REMARK   12  A    between atoms: _28  and  _31
REMARK   13  A    between atoms: _31  and  _32
REMARK   14  A    between atoms: _32  and  _33
REMARK   15  A    between atoms: _33  and  _34
REMARK   16  A    between atoms: _43  and  _45
REMARK   17  A    between atoms: _45  and  _46
REMARK   18  A    between atoms: _45  and  _48
REMARK   19  A    between atoms: _48  and  _49
REMARK   20  A    between atoms: _51  and  _53
REMARK   21  A    between atoms: _53  and  _54
REMARK   22  A    between atoms: _53  and  _56
REMARK   23  A    between atoms: _56  and  _57
REMARK   24  A    between atoms: _62  and  _64
REMARK   25  A    between atoms: _64  and  _65
REMARK   26  A    between atoms: _64  and  _67
REMARK   27  A    between atoms: _67  and  _68
REMARK   28  A    between atoms: _73  and  _74
REMARK   29  A    between atoms: _76  and  _78
REMARK   30  A    between atoms: _78  and  _79
REMARK   31  A    between atoms: _78  and  _81
REMARK   32  A    between atoms: _81  and  _82
REMARK   33  A    between atoms: _82  and  _83
REMARK   34  A    between atoms: _86  and  _88
REMARK   35  A    between atoms: _88  and  _89
REMARK   36  A    between atoms: _88  and  _91
REMARK   37  A    between atoms: _91  and  _92
REMARK   38  A    between atoms: _92  and  _93
REMARK   39  A    between atoms: _93  and  _94
REMARK   40  A    between atoms: _94  and  _95
REMARK   41  A    between atoms: _99  and  _101
REMARK   42  A    between atoms: _101  and  _102
REMARK   43  A    between atoms: _101  and  _104
REMARK   44  A    between atoms: _104  and  _105
REMARK   45  A    between atoms: _110  and  _111
REMARK   46  A    between atoms: _113  and  _115
REMARK   47  A    between atoms: _115  and  _116
REMARK   48  A    between atoms: _115  and  _118
REMARK   49  A    between atoms: _118  and  _119
REMARK   50  A    between atoms: _119  and  _120
REMARK   51  A    between atoms: _120  and  _121
REMARK   52  A    between atoms: _130  and  _132
REMARK   53  A    between atoms: _132  and  _133
REMARK   54  A    between atoms: _136  and  _138
REMARK   55  A    between atoms: _138  and  _139
REMARK   56  A    between atoms: _138  and  _141
REMARK   57  A    between atoms: _141  and  _142
REMARK   58  A    between atoms: _142  and  _258
REMARK   59  A    between atoms: _143  and  _145
REMARK   60  A    between atoms: _145  and  _146
REMARK   61  A    between atoms: _145  and  _148
REMARK   62  A    between atoms: _148  and  _149
REMARK   63  A    between atoms: _149  and  _150
REMARK   64  A    between atoms: _153  and  _155
REMARK   65  A    between atoms: _155  and  _156
REMARK   66  A    between atoms: _155  and  _158
REMARK   67  A    between atoms: _158  and  _159
REMARK   68  A    between atoms: _161  and  _163
REMARK   69  A    between atoms: _163  and  _164
REMARK   70  A    between atoms: _163  and  _166
REMARK   71  A    between atoms: _166  and  _167
REMARK   72  A    between atoms: _172  and  _173
REMARK   73  A    between atoms: _175  and  _177
REMARK   74  A    between atoms: _177  and  _178
REMARK   75  A    between atoms: _177  and  _180
REMARK   76  A    between atoms: _180  and  _181
REMARK   77  A    between atoms: _186  and  _188
REMARK   78  A    between atoms: _188  and  _189
REMARK   79  A    between atoms: _188  and  _191
REMARK   80  A    between atoms: _194  and  _196
REMARK   81  A    between atoms: _196  and  _197
REMARK   82  A    between atoms: _196  and  _199
REMARK   83  A    between atoms: _199  and  _200
REMARK   84  A    between atoms: _200  and  _201
REMARK   85  A    between atoms: _201  and  _202
REMARK   86  A    between atoms: _211  and  _213
REMARK   87  A    between atoms: _213  and  _214
REMARK   88  A    between atoms: _213  and  _216
REMARK   89  A    between atoms: _216  and  _217
REMARK   90  A    between atoms: _222  and  _224
REMARK   91  A    between atoms: _224  and  _225
REMARK   92  A    between atoms: _224  and  _227
REMARK   93  A    between atoms: _227  and  _228
REMARK   94  A    between atoms: _231  and  _233
REMARK   95  A    between atoms: _233  and  _234
REMARK   96  A    between atoms: _236  and  _238
REMARK   97  A    between atoms: _238  and  _239
REMARK   98  A    between atoms: _238  and  _241
REMARK   99  A    between atoms: _241  and  _242
REMARK  100  A    between atoms: _252  and  _254
REMARK  101  A    between atoms: _254  and  _255
REMARK  102  A    between atoms: _254  and  _257
REMARK  103  A    between atoms: _257  and  _258
REMARK  104  A    between atoms: _259  and  _261
REMARK  105  A    between atoms: _261  and  _262
REMARK  106  A    between atoms: _261  and  _264
REMARK  107  A    between atoms: _264  and  _265
REMARK  108  A    between atoms: _268  and  _270
REMARK  109  A    between atoms: _270  and  _271
REMARK  110  A    between atoms: _273  and  _275
REMARK  111  A    between atoms: _275  and  _276
REMARK  112  A    between atoms: _275  and  _278
REMARK  113  A    between atoms: _278  and  _279
REMARK  114  A    between atoms: _284  and  _285
REMARK  115  A    between atoms: _287  and  _289
REMARK  116  A    between atoms: _289  and  _290
REMARK  117  A    between atoms: _289  and  _292
REMARK  118  A    between atoms: _292  and  _293
REMARK  119  A    between atoms: _293  and  _294
REMARK  120  A    between atoms: _294  and  _295
REMARK  121  A    between atoms: _304  and  _306
REMARK  122  A    between atoms: _306  and  _307
REMARK  123  A    between atoms: _306  and  _309
REMARK  124  A    between atoms: _309  and  _310
REMARK  125  A    between atoms: _310  and  _311
REMARK  126  A    between atoms: _311  and  _312
REMARK  127  A    between atoms: _312  and  _313
REMARK  128  A    between atoms: _317  and  _319
REMARK  129  A    between atoms: _319  and  _320
REMARK  130  A    between atoms: _322  and  _324
REMARK  131  A    between atoms: _324  and  _325
REMARK  132  A    between atoms: _328  and  _330
REMARK  133  A    between atoms: _330  and  _331
REMARK  134  A    between atoms: _330  and  _333
REMARK  135  A    between atoms: _333  and  _334
REMARK  136  A    between atoms: _339  and  _341
REMARK  137  A    between atoms: _341  and  _342
REMARK  138  A    between atoms: _345  and  _347
REMARK  139  A    between atoms: _347  and  _348
REMARK  140  A    between atoms: _351  and  _352
REMARK  141  A    between atoms: _357  and  _359
REMARK  142  A    between atoms: _359  and  _360
REMARK  143  A    between atoms: _359  and  _362
REMARK  144  A    between atoms: _362  and  _363
REMARK  145  A    between atoms: _366  and  _368
REMARK  146  A    between atoms: _368  and  _369
REMARK  147  A    between atoms: _368  and  _371
REMARK  148  A    between atoms: _371  and  _372
REMARK  149  A    between atoms: _382  and  _384
REMARK  150  A    between atoms: _384  and  _385
REMARK  151  A    between atoms: _384  and  _387
REMARK  152  A    between atoms: _387  and  _388
REMARK  153  A    between atoms: _394  and  _395
REMARK  154  A    between atoms: _400  and  _402
REMARK  155  A    between atoms: _402  and  _403
REMARK  156  A    between atoms: _402  and  _405
REMARK  157  A    between atoms: _405  and  _406
REMARK  158  A    between atoms: _409  and  _411
REMARK  159  A    between atoms: _411  and  _412
REMARK  160  A    between atoms: _411  and  _414
REMARK  161  A    between atoms: _414  and  _415
REMARK  162  A    between atoms: _417  and  _419
REMARK  163  A    between atoms: _419  and  _420
REMARK  164  A    between atoms: _419  and  _422
REMARK  165  A    between atoms: _422  and  _423
REMARK  166  A    between atoms: _428  and  _430
REMARK  167  A    between atoms: _430  and  _431
REMARK  168  A    between atoms: _430  and  _433
REMARK  169  A    between atoms: _436  and  _438
REMARK  170  A    between atoms: _438  and  _439
REMARK  171  A    between atoms: _438  and  _441
REMARK  172  A    between atoms: _441  and  _442
REMARK  173  A    between atoms: _442  and  _443
REMARK  174  A    between atoms: _449  and  _450
REMARK  175  A    between atoms: _455  and  _457
REMARK  176  A    between atoms: _457  and  _458
REMARK  177  A    between atoms: _457  and  _460
REMARK  178  A    between atoms: _460  and  _461
REMARK  179  A    between atoms: _464  and  _466
REMARK  180  A    between atoms: _466  and  _467
REMARK  181  A    between atoms: _466  and  _469
REMARK  182  A    between atoms: _469  and  _470
REMARK  183  A    between atoms: _473  and  _475
REMARK  184  A    between atoms: _475  and  _476
REMARK  185  A    between atoms: _475  and  _478
REMARK  186  A    between atoms: _478  and  _479
REMARK  187  A    between atoms: _481  and  _483
REMARK  188  A    between atoms: _483  and  _484
REMARK  189  A    between atoms: _483  and  _486
REMARK  190  A    between atoms: _486  and  _487
REMARK  191  A    between atoms: _492  and  _493
REMARK  192  A    between atoms: _495  and  _497
REMARK  193  A    between atoms: _497  and  _498
REMARK  194  A    between atoms: _497  and  _500
REMARK  195  A    between atoms: _500  and  _501
REMARK  196  A    between atoms: _506  and  _508
REMARK  197  A    between atoms: _508  and  _509
REMARK  198  A    between atoms: _508  and  _511
REMARK  199  A    between atoms: _511  and  _512
REMARK  200  A    between atoms: _515  and  _517
REMARK  201  A    between atoms: _517  and  _518
REMARK  202  A    between atoms: _517  and  _520
REMARK  203  A    between atoms: _520  and  _521
REMARK  204  A    between atoms: _531  and  _533
REMARK  205  A    between atoms: _533  and  _534
REMARK  206  A    between atoms: _536  and  _538
REMARK  207  A    between atoms: _538  and  _539
REMARK  208  A    between atoms: _538  and  _541
REMARK  209  A    between atoms: _541  and  _542
REMARK  210  A    between atoms: _547  and  _548
REMARK  211  A    between atoms: _550  and  _552
REMARK  212  A    between atoms: _552  and  _553
REMARK  213  A    between atoms: _552  and  _555
REMARK  214  A    between atoms: _555  and  _556
REMARK  215  A    between atoms: _556  and  _557
REMARK  216  A    between atoms: _557  and  _558
REMARK  217  A    between atoms: _567  and  _569
REMARK  218  A    between atoms: _569  and  _570
REMARK  219  A    between atoms: _569  and  _572
REMARK  220  A    between atoms: _572  and  _573
REMARK  221  A    between atoms: _573  and  _574
REMARK  222  A    between atoms: _574  and  _575
REMARK  223  A    between atoms: _575  and  _576
REMARK  224  A    between atoms: _580  and  _582
REMARK  225  A    between atoms: _582  and  _583
REMARK  226  A    between atoms: _585  and  _587
REMARK  227  A    between atoms: _587  and  _588
REMARK  228  A    between atoms: _591  and  _593
REMARK  229  A    between atoms: _593  and  _594
REMARK  230  A    between atoms: _593  and  _596
REMARK  231  A    between atoms: _596  and  _597
REMARK  232  A    between atoms: _602  and  _604
REMARK  233  A    between atoms: _604  and  _605
REMARK  234  A    between atoms: _608  and  _610
REMARK  235  A    between atoms: _610  and  _611
REMARK  236  A    between atoms: _614  and  _615
REMARK  237  A    between atoms: _620  and  _622
REMARK  238  A    between atoms: _622  and  _623
REMARK  239  A    between atoms: _622  and  _625
REMARK  240  A    between atoms: _625  and  _626
REMARK  241  A    between atoms: _629  and  _631
REMARK  242  A    between atoms: _631  and  _632
REMARK  243  A    between atoms: _631  and  _634
REMARK  244  A    between atoms: _634  and  _635
REMARK  245  A    between atoms: _645  and  _647
REMARK  246  A    between atoms: _647  and  _648
REMARK  247  A    between atoms: _647  and  _650
REMARK  248  A    between atoms: _650  and  _651
REMARK  249  A    between atoms: _657  and  _658
REMARK  250  A    between atoms: _663  and  _665
REMARK  251  A    between atoms: _665  and  _666
REMARK  252  A    between atoms: _665  and  _668
REMARK  253  A    between atoms: _668  and  _669
REMARK  254  A    between atoms: _672  and  _674
REMARK  255  A    between atoms: _674  and  _675
REMARK  256  A    between atoms: _674  and  _677
REMARK  257  A    between atoms: _677  and  _678
REMARK  258  A    between atoms: _678  and  _679
REMARK  259  A    between atoms: _682  and  _684
REMARK  260  A    between atoms: _684  and  _685
REMARK  261  A    between atoms: _684  and  _687
REMARK  262  A    between atoms: _687  and  _688
REMARK  263  A    between atoms: _688  and  _689
REMARK  264  A    between atoms: _689  and  _690
REMARK  265  A    between atoms: _690  and  _691
REMARK  266  A    between atoms: _695  and  _697
REMARK  267  A    between atoms: _697  and  _698
REMARK  268  A    between atoms: _700  and  _702
REMARK  269  A    between atoms: _702  and  _703
REMARK  270  A    between atoms: _702  and  _705
REMARK  271  A    between atoms: _705  and  _706
REMARK  272  A    between atoms: _711  and  _713
REMARK  273  A    between atoms: _713  and  _714
REMARK  274  A    between atoms: _713  and  _716
REMARK  275  A    between atoms: _716  and  _717
REMARK  276  A    between atoms: _717  and  _718
REMARK  277  A    between atoms: _718  and  _719
REMARK  278  A    between atoms: _728  and  _730
REMARK  279  A    between atoms: _730  and  _731
REMARK  280  A    between atoms: _730  and  _733
REMARK  281  A    between atoms: _733  and  _734
REMARK  282  A    between atoms: _737  and  _739
REMARK  283  A    between atoms: _739  and  _740
REMARK  284  A    between atoms: _739  and  _742
REMARK  285  A    between atoms: _745  and  _747
REMARK  286  A    between atoms: _747  and  _748
REMARK  287  A    between atoms: _747  and  _750
REMARK  288  A    between atoms: _750  and  _751
REMARK  289  A    between atoms: _751  and  _752
REMARK  290  A    between atoms: _758  and  _759
REMARK  291  A    between atoms: _764  and  _766
REMARK  292  A    between atoms: _766  and  _767
REMARK  293  A    between atoms: _766  and  _769
REMARK  294  A    between atoms: _769  and  _770
REMARK  295  A    between atoms: _773  and  _775
REMARK  296  A    between atoms: _775  and  _776
REMARK  297  A    between atoms: _775  and  _778
REMARK  298  A    between atoms: _778  and  _779
REMARK  299  A    between atoms: _782  and  _784
REMARK  300  A    between atoms: _784  and  _785
REMARK  301  A    between atoms: _784  and  _787
REMARK  302  A    between atoms: _787  and  _788
REMARK  303  A    between atoms: _790  and  _792
REMARK  304  A    between atoms: _792  and  _793
REMARK  305  A    between atoms: _792  and  _795
REMARK  306  A    between atoms: _795  and  _796
REMARK  307  A    between atoms: _796  and  _797
REMARK  308  A    between atoms: _797  and  _798
REMARK  309  A    between atoms: _807  and  _809
REMARK  310  A    between atoms: _809  and  _810
REMARK                            x       y       z     vdW  Elec       q    Type
REMARK                         _______ _______ _______ _____ _____    ______ ____
ROOT
ATOM      1  O   HOH     1     -31.550 -28.587 -11.301  0.00  0.00    +0.000 OA
ENDROOT
TORSDOF 0
REMARK  Name = ../refined-set-2016/3rt4/3rt4_pocket.pdb
REMARK  310 active torsions:
REMARK  status: ('A' for Active; 'I' for Inactive)
REMARK    1  A    between atoms: _1  and  _3
REMARK    2  A    between atoms: _3  and  _4
REMARK    3  A    between atoms: _3  and  _6
REMARK    4  A    between atoms: _6  and  _7
REMARK    5  A    between atoms: _7  and  _8
REMARK    6  A    between atoms: _8  and  _9
REMARK    7  A    between atoms: _18  and  _20
REMARK    8  A    between atoms: _20  and  _21
REMARK    9  A    between atoms: _20  and  _23
REMARK   10  A    between atoms: _26  and  _28
REMARK   11  A    between atoms: _28  and  _29
REMARK   12  A    between atoms: _28  and  _31
REMARK   13  A    between atoms: _31  and  _32
REMARK   14  A    between atoms: _32  and  _33
REMARK   15  A    between atoms: _33  and  _34
REMARK   16  A    between atoms: _43  and  _45
REMARK   17  A    between atoms: _45  and  _46
REMARK   18  A    between atoms: _45  and  _48
REMARK   19  A    between atoms: _48  and  _49
REMARK   20  A    between atoms: _51  and  _53
REMARK   21  A    between atoms: _53  and  _54
REMARK   22  A    between atoms: _53  and  _56
REMARK   23  A    between atoms: _56  and  _57
REMARK   24  A    between atoms: _62  and  _64
REMARK   25  A    between atoms: _64  and  _65
REMARK   26  A    between atoms: _64  and  _67
REMARK   27  A    between atoms: _67  and  _68
REMARK   28  A    between atoms: _73  and  _74
REMARK   29  A    between atoms: _76  and  _78
REMARK   30  A    between atoms: _78  and  _79
REMARK   31  A    between atoms: _78  and  _81
REMARK   32  A    between atoms: _81  and  _82
REMARK   33  A    between atoms: _82  and  _83
REMARK   34  A    between atoms: _86  and  _88
REMARK   35  A    between atoms: _88  and  _89
REMARK   36  A    between atoms: _88  and  _91
REMARK   37  A    between atoms: _91  and  _92
REMARK   38  A    between atoms: _92  and  _93
REMARK   39  A    between atoms: _93  and  _94
REMARK   40  A    between atoms: _94  and  _95
REMARK   41  A    between atoms: _99  and  _101
REMARK   42  A    between atoms: _101  and  _102
REMARK   43  A    between atoms: _101  and  _104
REMARK   44  A    between atoms: _104  and  _105
REMARK   45  A    between atoms: _110  and  _111
REMARK   46  A    between atoms: _113  and  _115
REMARK   47  A    between atoms: _115  and  _116
REMARK   48  A    between atoms: _115  and  _118
REMARK   49  A    between atoms: _118  and  _119
REMARK   50  A    between atoms: _119  and  _120
REMARK   51  A    between atoms: _120  and  _121
REMARK   52  A    between atoms: _130  and  _132
REMARK   53  A    between atoms: _132  and  _133
REMARK   54  A    between atoms: _136  and  _138
REMARK   55  A    between atoms: _138  and  _139
REMARK   56  A    between atoms: _138  and  _141
REMARK   57  A    between atoms: _141  and  _142
REMARK   58  A    between atoms: _142  and  _258
REMARK   59  A    between atoms: _143  and  _145
REMARK   60  A    between atoms: _145  and  _146
REMARK   61  A    between atoms: _145  and  _148
REMARK   62  A    between atoms: _148  and  _149
REMARK   63  A    between atoms: _149  and  _150
REMARK   64  A    between atoms: _153  and  _155
REMARK   65  A    between atoms: _155  and  _156
REMARK   66  A    between atoms: _155  and  _158
REMARK   67  A    between atoms: _158  and  _159
REMARK   68  A    between atoms: _161  and  _163
REMARK   69  A    between atoms: _163  and  _164
REMARK   70  A    between atoms: _163  and  _166
REMARK   71  A    between atoms: _166  and  _167
REMARK   72  A    between atoms: _172  and  _173
REMARK   73  A    between atoms: _175  and  _177
REMARK   74  A    between atoms: _177  and  _178
REMARK   75  A    between atoms: _177  and  _180
REMARK   76  A    between atoms: _180  and  _181
REMARK   77  A    between atoms: _186  and  _188
REMARK   78  A    between atoms: _188  and  _189
REMARK   79  A    between atoms: _188  and  _191
REMARK   80  A    between atoms: _194  and  _196
REMARK   81  A    between atoms: _196  and  _197
REMARK   82  A    between atoms: _196  and  _199
REMARK   83  A    between atoms: _199  and  _200
REMARK   84  A    between atoms: _200  and  _201
REMARK   85  A    between atoms: _201  and  _202
REMARK   86  A    between atoms: _211  and  _213
REMARK   87  A    between atoms: _213  and  _214
REMARK   88  A    between atoms: _213  and  _216
REMARK   89  A    between atoms: _216  and  _217
REMARK   90  A    between atoms: _222  and  _224
REMARK   91  A    between atoms: _224  and  _225
REMARK   92  A    between atoms: _224  and  _227
REMARK   93  A    between atoms: _227  and  _228
REMARK   94  A    between atoms: _231  and  _233
REMARK   95  A    between atoms: _233  and  _234
REMARK   96  A    between atoms: _236  and  _238
REMARK   97  A    between atoms: _238  and  _239
REMARK   98  A    between atoms: _238  and  _241
REMARK   99  A    between atoms: _241  and  _242
REMARK  100  A    between atoms: _252  and  _254
REMARK  101  A    between atoms: _254  and  _255
REMARK  102  A    between atoms: _254  and  _257
REMARK  103  A    between atoms: _257  and  _258
REMARK  104  A    between atoms: _259  and  _261
REMARK  105  A    between atoms: _261  and  _262
REMARK  106  A    between atoms: _261  and  _264
REMARK  107  A    between atoms: _264  and  _265
REMARK  108  A    between atoms: _268  and  _270
REMARK  109  A    between atoms: _270  and  _271
REMARK  110  A    between atoms: _273  and  _275
REMARK  111  A    between atoms: _275  and  _276
REMARK  112  A    between atoms: _275  and  _278
REMARK  113  A    between atoms: _278  and  _279
REMARK  114  A    between atoms: _284  and  _285
REMARK  115  A    between atoms: _287  and  _289
REMARK  116  A    between atoms: _289  and  _290
REMARK  117  A    between atoms: _289  and  _292
REMARK  118  A    between atoms: _292  and  _293
REMARK  119  A    between atoms: _293  and  _294
REMARK  120  A    between atoms: _294  and  _295
REMARK  121  A    between atoms: _304  and  _306
REMARK  122  A    between atoms: _306  and  _307
REMARK  123  A    between atoms: _306  and  _309
REMARK  124  A    between atoms: _309  and  _310
REMARK  125  A    between atoms: _310  and  _311
REMARK  126  A    between atoms: _311  and  _312
REMARK  127  A    between atoms: _312  and  _313
REMARK  128  A    between atoms: _317  and  _319
REMARK  129  A    between atoms: _319  and  _320
REMARK  130  A    between atoms: _322  and  _324
REMARK  131  A    between atoms: _324  and  _325
REMARK  132  A    between atoms: _328  and  _330
REMARK  133  A    between atoms: _330  and  _331
REMARK  134  A    between atoms: _330  and  _333
REMARK  135  A    between atoms: _333  and  _334
REMARK  136  A    between atoms: _339  and  _341
REMARK  137  A    between atoms: _341  and  _342
REMARK  138  A    between atoms: _345  and  _347
REMARK  139  A    between atoms: _347  and  _348
REMARK  140  A    between atoms: _351  and  _352
REMARK  141  A    between atoms: _357  and  _359
REMARK  142  A    between atoms: _359  and  _360
REMARK  143  A    between atoms: _359  and  _362
REMARK  144  A    between atoms: _362  and  _363
REMARK  145  A    between atoms: _366  and  _368
REMARK  146  A    between atoms: _368  and  _369
REMARK  147  A    between atoms: _368  and  _371
REMARK  148  A    between atoms: _371  and  _372
REMARK  149  A    between atoms: _382  and  _384
REMARK  150  A    between atoms: _384  and  _385
REMARK  151  A    between atoms: _384  and  _387
REMARK  152  A    between atoms: _387  and  _388
REMARK  153  A    between atoms: _394  and  _395
REMARK  154  A    between atoms: _400  and  _402
REMARK  155  A    between atoms: _402  and  _403
REMARK  156  A    between atoms: _402  and  _405
REMARK  157  A    between atoms: _405  and  _406
REMARK  158  A    between atoms: _409  and  _411
REMARK  159  A    between atoms: _411  and  _412
REMARK  160  A    between atoms: _411  and  _414
REMARK  161  A    between atoms: _414  and  _415
REMARK  162  A    between atoms: _417  and  _419
REMARK  163  A    between atoms: _419  and  _420
REMARK  164  A    between atoms: _419  and  _422
REMARK  165  A    between atoms: _422  and  _423
REMARK  166  A    between atoms: _428  and  _430
REMARK  167  A    between atoms: _430  and  _431
REMARK  168  A    between atoms: _430  and  _433
REMARK  169  A    between atoms: _436  and  _438
REMARK  170  A    between atoms: _438  and  _439
REMARK  171  A    between atoms: _438  and  _441
REMARK  172  A    between atoms: _441  and  _442
REMARK  173  A    between atoms: _442  and  _443
REMARK  174  A    between atoms: _449  and  _450
REMARK  175  A    between atoms: _455  and  _457
REMARK  176  A    between atoms: _457  and  _458
REMARK  177  A    between atoms: _457  and  _460
REMARK  178  A    between atoms: _460  and  _461
REMARK  179  A    between atoms: _464  and  _466
REMARK  180  A    between atoms: _466  and  _467
REMARK  181  A    between atoms: _466  and  _469
REMARK  182  A    between atoms: _469  and  _470
REMARK  183  A    between atoms: _473  and  _475
REMARK  184  A    between atoms: _475  and  _476
REMARK  185  A    between atoms: _475  and  _478
REMARK  186  A    between atoms: _478  and  _479
REMARK  187  A    between atoms: _481  and  _483
REMARK  188  A    between atoms: _483  and  _484
REMARK  189  A    between atoms: _483  and  _486
REMARK  190  A    between atoms: _486  and  _487
REMARK  191  A    between atoms: _492  and  _493
REMARK  192  A    between atoms: _495  and  _497
REMARK  193  A    between atoms: _497  and  _498
REMARK  194  A    between atoms: _497  and  _500
REMARK  195  A    between atoms: _500  and  _501
REMARK  196  A    between atoms: _506  and  _508
REMARK  197  A    between atoms: _508  and  _509
REMARK  198  A    between atoms: _508  and  _511
REMARK  199  A    between atoms: _511  and  _512
REMARK  200  A    between atoms: _515  and  _517
REMARK  201  A    between atoms: _517  and  _518
REMARK  202  A    between atoms: _517  and  _520
REMARK  203  A    between atoms: _520  and  _521
REMARK  204  A    between atoms: _531  and  _533
REMARK  205  A    between atoms: _533  and  _534
REMARK  206  A    between atoms: _536  and  _538
REMARK  207  A    between atoms: _538  and  _539
REMARK  208  A    between atoms: _538  and  _541
REMARK  209  A    between atoms: _541  and  _542
REMARK  210  A    between atoms: _547  and  _548
REMARK  211  A    between atoms: _550  and  _552
REMARK  212  A    between atoms: _552  and  _553
REMARK  213  A    between atoms: _552  and  _555
REMARK  214  A    between atoms: _555  and  _556
REMARK  215  A    between atoms: _556  and  _557
REMARK  216  A    between atoms: _557  and  _558
REMARK  217  A    between atoms: _567  and  _569
REMARK  218  A    between atoms: _569  and  _570
REMARK  219  A    between atoms: _569  and  _572
REMARK  220  A    between atoms: _572  and  _573
REMARK  221  A    between atoms: _573  and  _574
REMARK  222  A    between atoms: _574  and  _575
REMARK  223  A    between atoms: _575  and  _576
REMARK  224  A    between atoms: _580  and  _582
REMARK  225  A    between atoms: _582  and  _583
REMARK  226  A    between atoms: _585  and  _587
REMARK  227  A    between atoms: _587  and  _588
REMARK  228  A    between atoms: _591  and  _593
REMARK  229  A    between atoms: _593  and  _594
REMARK  230  A    between atoms: _593  and  _596
REMARK  231  A    between atoms: _596  and  _597
REMARK  232  A    between atoms: _602  and  _604
REMARK  233  A    between atoms: _604  and  _605
REMARK  234  A    between atoms: _608  and  _610
REMARK  235  A    between atoms: _610  and  _611
REMARK  236  A    between atoms: _614  and  _615
REMARK  237  A    between atoms: _620  and  _622
REMARK  238  A    between atoms: _622  and  _623
REMARK  239  A    between atoms: _622  and  _625
REMARK  240  A    between atoms: _625  and  _626
REMARK  241  A    between atoms: _629  and  _631
REMARK  242  A    between atoms: _631  and  _632
REMARK  243  A    between atoms: _631  and  _634
REMARK  244  A    between atoms: _634  and  _635
REMARK  245  A    between atoms: _645  and  _647
REMARK  246  A    between atoms: _647  and  _648
REMARK  247  A    between atoms: _647  and  _650
REMARK  248  A    between atoms: _650  and  _651
REMARK  249  A    between atoms: _657  and  _658
REMARK  250  A    between atoms: _663  and  _665
REMARK  251  A    between atoms: _665  and  _666
REMARK  252  A    between atoms: _665  and  _668
REMARK  253  A    between atoms: _668  and  _669
REMARK  254  A    between atoms: _672  and  _674
REMARK  255  A    between atoms: _674  and  _675
REMARK  256  A    between atoms: _674  and  _677
REMARK  257  A    between atoms: _677  and  _678
REMARK  258  A    between atoms: _678  and  _679
REMARK  259  A    between atoms: _682  and  _684
REMARK  260  A    between atoms: _684  and  _685
REMARK  261  A    between atoms: _684  and  _687
REMARK  262  A    between atoms: _687  and  _688
REMARK  263  A    between atoms: _688  and  _689
REMARK  264  A    between atoms: _689  and  _690
REMARK  265  A    between atoms: _690  and  _691
REMARK  266  A    between atoms: _695  and  _697
REMARK  267  A    between atoms: _697  and  _698
REMARK  268  A    between atoms: _700  and  _702
REMARK  269  A    between atoms: _702  and  _703
REMARK  270  A    between atoms: _702  and  _705
REMARK  271  A    between atoms: _705  and  _706
REMARK  272  A    between atoms: _711  and  _713
REMARK  273  A    between atoms: _713  and  _714
REMARK  274  A    between atoms: _713  and  _716
REMARK  275  A    between atoms: _716  and  _717
REMARK  276  A    between atoms: _717  and  _718
REMARK  277  A    between atoms: _718  and  _719
REMARK  278  A    between atoms: _728  and  _730
REMARK  279  A    between atoms: _730  and  _731
REMARK  280  A    between atoms: _730  and  _733
REMARK  281  A    between atoms: _733  and  _734
REMARK  282  A    between atoms: _737  and  _739
REMARK  283  A    between atoms: _739  and  _740
REMARK  284  A    between atoms: _739  and  _742
REMARK  285  A    between atoms: _745  and  _747
REMARK  286  A    between atoms: _747  and  _748
REMARK  287  A    between atoms: _747  and  _750
REMARK  288  A    between atoms: _750  and  _751
REMARK  289  A    between atoms: _751  and  _752
REMARK  290  A    between atoms: _758  and  _759
REMARK  291  A    between atoms: _764  and  _766
REMARK  292  A    between atoms: _766  and  _767
REMARK  293  A    between atoms: _766  and  _769
REMARK  294  A    between atoms: _769  and  _770
REMARK  295  A    between atoms: _773  and  _775
REMARK  296  A    between atoms: _775  and  _776
REMARK  297  A    between atoms: _775  and  _778
REMARK  298  A    between atoms: _778  and  _779
REMARK  299  A    between atoms: _782  and  _784
REMARK  300  A    between atoms: _784  and  _785
REMARK  301  A    between atoms: _784  and  _787
REMARK  302  A    between atoms: _787  and  _788
REMARK  303  A    between atoms: _790  and  _792
REMARK  304  A    between atoms: _792  and  _793
REMARK  305  A    between atoms: _792  and  _795
REMARK  306  A    between atoms: _795  and  _796
REMARK  307  A    between atoms: _796  and  _797
REMARK  308  A    between atoms: _797  and  _798
REMARK  309  A    between atoms: _807  and  _809
REMARK  310  A    between atoms: _809  and  _810
REMARK                            x       y       z     vdW  Elec       q    Type
REMARK                         _______ _______ _______ _____ _____    ______ ____
ROOT
ATOM      1  O   HOH     1     -41.264 -29.695 -21.484  0.00  0.00    +0.000 OA
ENDROOT
TORSDOF 0
REMARK  Name = ../refined-set-2016/3rt4/3rt4_pocket.pdb
REMARK  310 active torsions:
REMARK  status: ('A' for Active; 'I' for Inactive)
REMARK    1  A    between atoms: _1  and  _3
REMARK    2  A    between atoms: _3  and  _4
REMARK    3  A    between atoms: _3  and  _6
REMARK    4  A    between atoms: _6  and  _7
REMARK    5  A    between atoms: _7  and  _8
REMARK    6  A    between atoms: _8  and  _9
REMARK    7  A    between atoms: _18  and  _20
REMARK    8  A    between atoms: _20  and  _21
REMARK    9  A    between atoms: _20  and  _23
REMARK   10  A    between atoms: _26  and  _28
REMARK   11  A    between atoms: _28  and  _29
REMARK   12  A    between atoms: _28  and  _31
REMARK   13  A    between atoms: _31  and  _32
REMARK   14  A    between atoms: _32  and  _33
REMARK   15  A    between atoms: _33  and  _34
REMARK   16  A    between atoms: _43  and  _45
REMARK   17  A    between atoms: _45  and  _46
REMARK   18  A    between atoms: _45  and  _48
REMARK   19  A    between atoms: _48  and  _49
REMARK   20  A    between atoms: _51  and  _53
REMARK   21  A    between atoms: _53  and  _54
REMARK   22  A    between atoms: _53  and  _56
REMARK   23  A    between atoms: _56  and  _57
REMARK   24  A    between atoms: _62  and  _64
REMARK   25  A    between atoms: _64  and  _65
REMARK   26  A    between atoms: _64  and  _67
REMARK   27  A    between atoms: _67  and  _68
REMARK   28  A    between atoms: _73  and  _74
REMARK   29  A    between atoms: _76  and  _78
REMARK   30  A    between atoms: _78  and  _79
REMARK   31  A    between atoms: _78  and  _81
REMARK   32  A    between atoms: _81  and  _82
REMARK   33  A    between atoms: _82  and  _83
REMARK   34  A    between atoms: _86  and  _88
REMARK   35  A    between atoms: _88  and  _89
REMARK   36  A    between atoms: _88  and  _91
REMARK   37  A    between atoms: _91  and  _92
REMARK   38  A    between atoms: _92  and  _93
REMARK   39  A    between atoms: _93  and  _94
REMARK   40  A    between atoms: _94  and  _95
REMARK   41  A    between atoms: _99  and  _101
REMARK   42  A    between atoms: _101  and  _102
REMARK   43  A    between atoms: _101  and  _104
REMARK   44  A    between atoms: _104  and  _105
REMARK   45  A    between atoms: _110  and  _111
REMARK   46  A    between atoms: _113  and  _115
REMARK   47  A    between atoms: _115  and  _116
REMARK   48  A    between atoms: _115  and  _118
REMARK   49  A    between atoms: _118  and  _119
REMARK   50  A    between atoms: _119  and  _120
REMARK   51  A    between atoms: _120  and  _121
REMARK   52  A    between atoms: _130  and  _132
REMARK   53  A    between atoms: _132  and  _133
REMARK   54  A    between atoms: _136  and  _138
REMARK   55  A    between atoms: _138  and  _139
REMARK   56  A    between atoms: _138  and  _141
REMARK   57  A    between atoms: _141  and  _142
REMARK   58  A    between atoms: _142  and  _258
REMARK   59  A    between atoms: _143  and  _145
REMARK   60  A    between atoms: _145  and  _146
REMARK   61  A    between atoms: _145  and  _148
REMARK   62  A    between atoms: _148  and  _149
REMARK   63  A    between atoms: _149  and  _150
REMARK   64  A    between atoms: _153  and  _155
REMARK   65  A    between atoms: _155  and  _156
REMARK   66  A    between atoms: _155  and  _158
REMARK   67  A    between atoms: _158  and  _159
REMARK   68  A    between atoms: _161  and  _163
REMARK   69  A    between atoms: _163  and  _164
REMARK   70  A    between atoms: _163  and  _166
REMARK   71  A    between atoms: _166  and  _167
REMARK   72  A    between atoms: _172  and  _173
REMARK   73  A    between atoms: _175  and  _177
REMARK   74  A    between atoms: _177  and  _178
REMARK   75  A    between atoms: _177  and  _180
REMARK   76  A    between atoms: _180  and  _181
REMARK   77  A    between atoms: _186  and  _188
REMARK   78  A    between atoms: _188  and  _189
REMARK   79  A    between atoms: _188  and  _191
REMARK   80  A    between atoms: _194  and  _196
REMARK   81  A    between atoms: _196  and  _197
REMARK   82  A    between atoms: _196  and  _199
REMARK   83  A    between atoms: _199  and  _200
REMARK   84  A    between atoms: _200  and  _201
REMARK   85  A    between atoms: _201  and  _202
REMARK   86  A    between atoms: _211  and  _213
REMARK   87  A    between atoms: _213  and  _214
REMARK   88  A    between atoms: _213  and  _216
REMARK   89  A    between atoms: _216  and  _217
REMARK   90  A    between atoms: _222  and  _224
REMARK   91  A    between atoms: _224  and  _225
REMARK   92  A    between atoms: _224  and  _227
REMARK   93  A    between atoms: _227  and  _228
REMARK   94  A    between atoms: _231  and  _233
REMARK   95  A    between atoms: _233  and  _234
REMARK   96  A    between atoms: _236  and  _238
REMARK   97  A    between atoms: _238  and  _239
REMARK   98  A    between atoms: _238  and  _241
REMARK   99  A    between atoms: _241  and  _242
REMARK  100  A    between atoms: _252  and  _254
REMARK  101  A    between atoms: _254  and  _255
REMARK  102  A    between atoms: _254  and  _257
REMARK  103  A    between atoms: _257  and  _258
REMARK  104  A    between atoms: _259  and  _261
REMARK  105  A    between atoms: _261  and  _262
REMARK  106  A    between atoms: _261  and  _264
REMARK  107  A    between atoms: _264  and  _265
REMARK  108  A    between atoms: _268  and  _270
REMARK  109  A    between atoms: _270  and  _271
REMARK  110  A    between atoms: _273  and  _275
REMARK  111  A    between atoms: _275  and  _276
REMARK  112  A    between atoms: _275  and  _278
REMARK  113  A    between atoms: _278  and  _279
REMARK  114  A    between atoms: _284  and  _285
REMARK  115  A    between atoms: _287  and  _289
REMARK  116  A    between atoms: _289  and  _290
REMARK  117  A    between atoms: _289  and  _292
REMARK  118  A    between atoms: _292  and  _293
REMARK  119  A    between atoms: _293  and  _294
REMARK  120  A    between atoms: _294  and  _295
REMARK  121  A    between atoms: _304  and  _306
REMARK  122  A    between atoms: _306  and  _307
REMARK  123  A    between atoms: _306  and  _309
REMARK  124  A    between atoms: _309  and  _310
REMARK  125  A    between atoms: _310  and  _311
REMARK  126  A    between atoms: _311  and  _312
REMARK  127  A    between atoms: _312  and  _313
REMARK  128  A    between atoms: _317  and  _319
REMARK  129  A    between atoms: _319  and  _320
REMARK  130  A    between atoms: _322  and  _324
REMARK  131  A    between atoms: _324  and  _325
REMARK  132  A    between atoms: _328  and  _330
REMARK  133  A    between atoms: _330  and  _331
REMARK  134  A    between atoms: _330  and  _333
REMARK  135  A    between atoms: _333  and  _334
REMARK  136  A    between atoms: _339  and  _341
REMARK  137  A    between atoms: _341  and  _342
REMARK  138  A    between atoms: _345  and  _347
REMARK  139  A    between atoms: _347  and  _348
REMARK  140  A    between atoms: _351  and  _352
REMARK  141  A    between atoms: _357  and  _359
REMARK  142  A    between atoms: _359  and  _360
REMARK  143  A    between atoms: _359  and  _362
REMARK  144  A    between atoms: _362  and  _363
REMARK  145  A    between atoms: _366  and  _368
REMARK  146  A    between atoms: _368  and  _369
REMARK  147  A    between atoms: _368  and  _371
REMARK  148  A    between atoms: _371  and  _372
REMARK  149  A    between atoms: _382  and  _384
REMARK  150  A    between atoms: _384  and  _385
REMARK  151  A    between atoms: _384  and  _387
REMARK  152  A    between atoms: _387  and  _388
REMARK  153  A    between atoms: _394  and  _395
REMARK  154  A    between atoms: _400  and  _402
REMARK  155  A    between atoms: _402  and  _403
REMARK  156  A    between atoms: _402  and  _405
REMARK  157  A    between atoms: _405  and  _406
REMARK  158  A    between atoms: _409  and  _411
REMARK  159  A    between atoms: _411  and  _412
REMARK  160  A    between atoms: _411  and  _414
REMARK  161  A    between atoms: _414  and  _415
REMARK  162  A    between atoms: _417  and  _419
REMARK  163  A    between atoms: _419  and  _420
REMARK  164  A    between atoms: _419  and  _422
REMARK  165  A    between atoms: _422  and  _423
REMARK  166  A    between atoms: _428  and  _430
REMARK  167  A    between atoms: _430  and  _431
REMARK  168  A    between atoms: _430  and  _433
REMARK  169  A    between atoms: _436  and  _438
REMARK  170  A    between atoms: _438  and  _439
REMARK  171  A    between atoms: _438  and  _441
REMARK  172  A    between atoms: _441  and  _442
REMARK  173  A    between atoms: _442  and  _443
REMARK  174  A    between atoms: _449  and  _450
REMARK  175  A    between atoms: _455  and  _457
REMARK  176  A    between atoms: _457  and  _458
REMARK  177  A    between atoms: _457  and  _460
REMARK  178  A    between atoms: _460  and  _461
REMARK  179  A    between atoms: _464  and  _466
REMARK  180  A    between atoms: _466  and  _467
REMARK  181  A    between atoms: _466  and  _469
REMARK  182  A    between atoms: _469  and  _470
REMARK  183  A    between atoms: _473  and  _475
REMARK  184  A    between atoms: _475  and  _476
REMARK  185  A    between atoms: _475  and  _478
REMARK  186  A    between atoms: _478  and  _479
REMARK  187  A    between atoms: _481  and  _483
REMARK  188  A    between atoms: _483  and  _484
REMARK  189  A    between atoms: _483  and  _486
REMARK  190  A    between atoms: _486  and  _487
REMARK  191  A    between atoms: _492  and  _493
REMARK  192  A    between atoms: _495  and  _497
REMARK  193  A    between atoms: _497  and  _498
REMARK  194  A    between atoms: _497  and  _500
REMARK  195  A    between atoms: _500  and  _501
REMARK  196  A    between atoms: _506  and  _508
REMARK  197  A    between atoms: _508  and  _509
REMARK  198  A    between atoms: _508  and  _511
REMARK  199  A    between atoms: _511  and  _512
REMARK  200  A    between atoms: _515  and  _517
REMARK  201  A    between atoms: _517  and  _518
REMARK  202  A    between atoms: _517  and  _520
REMARK  203  A    between atoms: _520  and  _521
REMARK  204  A    between atoms: _531  and  _533
REMARK  205  A    between atoms: _533  and  _534
REMARK  206  A    between atoms: _536  and  _538
REMARK  207  A    between atoms: _538  and  _539
REMARK  208  A    between atoms: _538  and  _541
REMARK  209  A    between atoms: _541  and  _542
REMARK  210  A    between atoms: _547  and  _548
REMARK  211  A    between atoms: _550  and  _552
REMARK  212  A    between atoms: _552  and  _553
REMARK  213  A    between atoms: _552  and  _555
REMARK  214  A    between atoms: _555  and  _556
REMARK  215  A    between atoms: _556  and  _557
REMARK  216  A    between atoms: _557  and  _558
REMARK  217  A    between atoms: _567  and  _569
REMARK  218  A    between atoms: _569  and  _570
REMARK  219  A    between atoms: _569  and  _572
REMARK  220  A    between atoms: _572  and  _573
REMARK  221  A    between atoms: _573  and  _574
REMARK  222  A    between atoms: _574  and  _575
REMARK  223  A    between atoms: _575  and  _576
REMARK  224  A    between atoms: _580  and  _582
REMARK  225  A    between atoms: _582  and  _583
REMARK  226  A    between atoms: _585  and  _587
REMARK  227  A    between atoms: _587  and  _588
REMARK  228  A    between atoms: _591  and  _593
REMARK  229  A    between atoms: _593  and  _594
REMARK  230  A    between atoms: _593  and  _596
REMARK  231  A    between atoms: _596  and  _597
REMARK  232  A    between atoms: _602  and  _604
REMARK  233  A    between atoms: _604  and  _605
REMARK  234  A    between atoms: _608  and  _610
REMARK  235  A    between atoms: _610  and  _611
REMARK  236  A    between atoms: _614  and  _615
REMARK  237  A    between atoms: _620  and  _622
REMARK  238  A    between atoms: _622  and  _623
REMARK  239  A    between atoms: _622  and  _625
REMARK  240  A    between atoms: _625  and  _626
REMARK  241  A    between atoms: _629  and  _631
REMARK  242  A    between atoms: _631  and  _632
REMARK  243  A    between atoms: _631  and  _634
REMARK  244  A    between atoms: _634  and  _635
REMARK  245  A    between atoms: _645  and  _647
REMARK  246  A    between atoms: _647  and  _648
REMARK  247  A    between atoms: _647  and  _650
REMARK  248  A    between atoms: _650  and  _651
REMARK  249  A    between atoms: _657  and  _658
REMARK  250  A    between atoms: _663  and  _665
REMARK  251  A    between atoms: _665  and  _666
REMARK  252  A    between atoms: _665  and  _668
REMARK  253  A    between atoms: _668  and  _669
REMARK  254  A    between atoms: _672  and  _674
REMARK  255  A    between atoms: _674  and  _675
REMARK  256  A    between atoms: _674  and  _677
REMARK  257  A    between atoms: _677  and  _678
REMARK  258  A    between atoms: _678  and  _679
REMARK  259  A    between atoms: _682  and  _684
REMARK  260  A    between atoms: _684  and  _685
REMARK  261  A    between atoms: _684  and  _687
REMARK  262  A    between atoms: _687  and  _688
REMARK  263  A    between atoms: _688  and  _689
REMARK  264  A    between atoms: _689  and  _690
REMARK  265  A    between atoms: _690  and  _691
REMARK  266  A    between atoms: _695  and  _697
REMARK  267  A    between atoms: _697  and  _698
REMARK  268  A    between atoms: _700  and  _702
REMARK  269  A    between atoms: _702  and  _703
REMARK  270  A    between atoms: _702  and  _705
REMARK  271  A    between atoms: _705  and  _706
REMARK  272  A    between atoms: _711  and  _713
REMARK  273  A    between atoms: _713  and  _714
REMARK  274  A    between atoms: _713  and  _716
REMARK  275  A    between atoms: _716  and  _717
REMARK  276  A    between atoms: _717  and  _718
REMARK  277  A    between atoms: _718  and  _719
REMARK  278  A    between atoms: _728  and  _730
REMARK  279  A    between atoms: _730  and  _731
REMARK  280  A    between atoms: _730  and  _733
REMARK  281  A    between atoms: _733  and  _734
REMARK  282  A    between atoms: _737  and  _739
REMARK  283  A    between atoms: _739  and  _740
REMARK  284  A    between atoms: _739  and  _742
REMARK  285  A    between atoms: _745  and  _747
REMARK  286  A    between atoms: _747  and  _748
REMARK  287  A    between atoms: _747  and  _750
REMARK  288  A    between atoms: _750  and  _751
REMARK  289  A    between atoms: _751  and  _752
REMARK  290  A    between atoms: _758  and  _759
REMARK  291  A    between atoms: _764  and  _766
REMARK  292  A    between atoms: _766  and  _767
REMARK  293  A    between atoms: _766  and  _769
REMARK  294  A    between atoms: _769  and  _770
REMARK  295  A    between atoms: _773  and  _775
REMARK  296  A    between atoms: _775  and  _776
REMARK  297  A    between atoms: _775  and  _778
REMARK  298  A    between atoms: _778  and  _779
REMARK  299  A    between atoms: _782  and  _784
REMARK  300  A    between atoms: _784  and  _785
REMARK  301  A    between atoms: _784  and  _787
REMARK  302  A    between atoms: _787  and  _788
REMARK  303  A    between atoms: _790  and  _792
REMARK  304  A    between atoms: _792  and  _793
REMARK  305  A    between atoms: _792  and  _795
REMARK  306  A    between atoms: _795  and  _796
REMARK  307  A    between atoms: _796  and  _797
REMARK  308  A    between atoms: _797  and  _798
REMARK  309  A    between atoms: _807  and  _809
REMARK  310  A    between atoms: _809  and  _810
REMARK                            x       y       z     vdW  Elec       q    Type
REMARK                         _______ _______ _______ _____ _____    ______ ____
ROOT
ATOM      1  O   HOH     1     -40.106 -27.738 -33.095  0.00  0.00    +0.000 OA
ENDROOT
TORSDOF 0
