REMARK  Name = ../refined-set-2016/1ps3/1ps3_pocket.pdb
REMARK  153 active torsions:
REMARK  status: ('A' for Active; 'I' for Inactive)
REMARK    1  A    between atoms: _1  and  _3
REMARK    2  A    between atoms: _14  and  _17
REMARK    3  A    between atoms: _17  and  _18
REMARK    4  A    between atoms: _25  and  _26
REMARK    5  A    between atoms: _33  and  _34
REMARK    6  A    between atoms: _39  and  _41
REMARK    7  A    between atoms: _41  and  _42
REMARK    8  A    between atoms: _44  and  _46
REMARK    9  A    between atoms: _46  and  _47
REMARK   10  A    between atoms: _46  and  _49
REMARK   11  A    between atoms: _49  and  _50
REMARK   12  A    between atoms: _60  and  _62
REMARK   13  A    between atoms: _62  and  _63
REMARK   14  A    between atoms: _62  and  _65
REMARK   15  A    between atoms: _65  and  _66
REMARK   16  A    between atoms: _69  and  _71
REMARK   17  A    between atoms: _71  and  _72
REMARK   18  A    between atoms: _71  and  _74
REMARK   19  A    between atoms: _74  and  _75
REMARK   20  A    between atoms: _80  and  _81
REMARK   21  A    between atoms: _83  and  _85
REMARK   22  A    between atoms: _85  and  _86
REMARK   23  A    between atoms: _85  and  _88
REMARK   24  A    between atoms: _88  and  _89
REMARK   25  A    between atoms: _89  and  _90
REMARK   26  A    between atoms: _93  and  _95
REMARK   27  A    between atoms: _95  and  _96
REMARK   28  A    between atoms: _95  and  _98
REMARK   29  A    between atoms: _98  and  _99
REMARK   30  A    between atoms: _99  and  _100
REMARK   31  A    between atoms: _102  and  _104
REMARK   32  A    between atoms: _104  and  _105
REMARK   33  A    between atoms: _104  and  _107
REMARK   34  A    between atoms: _107  and  _108
REMARK   35  A    between atoms: _111  and  _113
REMARK   36  A    between atoms: _113  and  _114
REMARK   37  A    between atoms: _113  and  _116
REMARK   38  A    between atoms: _116  and  _117
REMARK   39  A    between atoms: _117  and  _118
REMARK   40  A    between atoms: _118  and  ZN_414
REMARK   41  A    between atoms: _121  and  _122
REMARK   42  A    between atoms: _127  and  _129
REMARK   43  A    between atoms: _129  and  _130
REMARK   44  A    between atoms: _129  and  _132
REMARK   45  A    between atoms: _132  and  _133
REMARK   46  A    between atoms: _139  and  _141
REMARK   47  A    between atoms: _141  and  _142
REMARK   48  A    between atoms: _141  and  _144
REMARK   49  A    between atoms: _144  and  _145
REMARK   50  A    between atoms: _145  and  _146
REMARK   51  A    between atoms: _146  and  _147
REMARK   52  A    between atoms: _156  and  _158
REMARK   53  A    between atoms: _158  and  _159
REMARK   54  A    between atoms: _158  and  _161
REMARK   55  A    between atoms: _161  and  _162
REMARK   56  A    between atoms: _167  and  _168
REMARK   57  A    between atoms: _170  and  _172
REMARK   58  A    between atoms: _172  and  _173
REMARK   59  A    between atoms: _172  and  _175
REMARK   60  A    between atoms: _175  and  _176
REMARK   61  A    between atoms: _178  and  _180
REMARK   62  A    between atoms: _180  and  _181
REMARK   63  A    between atoms: _180  and  _183
REMARK   64  A    between atoms: _183  and  _184
REMARK   65  A    between atoms: _189  and  _190
REMARK   66  A    between atoms: _192  and  _194
REMARK   67  A    between atoms: _194  and  _195
REMARK   68  A    between atoms: _194  and  _197
REMARK   69  A    between atoms: _197  and  _198
REMARK   70  A    between atoms: _201  and  _203
REMARK   71  A    between atoms: _203  and  _204
REMARK   72  A    between atoms: _203  and  _206
REMARK   73  A    between atoms: _206  and  _207
REMARK   74  A    between atoms: _210  and  _212
REMARK   75  A    between atoms: _212  and  _213
REMARK   76  A    between atoms: _212  and  _215
REMARK   77  A    between atoms: _215  and  _216
REMARK   78  A    between atoms: _219  and  _221
REMARK   79  A    between atoms: _221  and  _222
REMARK   80  A    between atoms: _221  and  _224
REMARK   81  A    between atoms: _224  and  _225
REMARK   82  A    between atoms: _231  and  _233
REMARK   83  A    between atoms: _233  and  _234
REMARK   84  A    between atoms: _233  and  _236
REMARK   85  A    between atoms: _236  and  _237
REMARK   86  A    between atoms: _242  and  _243
REMARK   87  A    between atoms: _245  and  _247
REMARK   88  A    between atoms: _247  and  _248
REMARK   89  A    between atoms: _247  and  _250
REMARK   90  A    between atoms: _250  and  _251
REMARK   91  A    between atoms: _254  and  _256
REMARK   92  A    between atoms: _256  and  _257
REMARK   93  A    between atoms: _256  and  _259
REMARK   94  A    between atoms: _259  and  _260
REMARK   95  A    between atoms: _270  and  _272
REMARK   96  A    between atoms: _272  and  _273
REMARK   97  A    between atoms: _272  and  _275
REMARK   98  A    between atoms: _275  and  _276
REMARK   99  A    between atoms: _281  and  _283
REMARK  100  A    between atoms: _283  and  _284
REMARK  101  A    between atoms: _283  and  _286
REMARK  102  A    between atoms: _286  and  _287
REMARK  103  A    between atoms: _291  and  ZN_414
REMARK  104  A    between atoms: _292  and  _294
REMARK  105  A    between atoms: _294  and  _295
REMARK  106  A    between atoms: _294  and  _297
REMARK  107  A    between atoms: _297  and  _298
REMARK  108  A    between atoms: _301  and  _303
REMARK  109  A    between atoms: _303  and  _304
REMARK  110  A    between atoms: _306  and  _308
REMARK  111  A    between atoms: _308  and  _309
REMARK  112  A    between atoms: _308  and  _311
REMARK  113  A    between atoms: _311  and  _312
REMARK  114  A    between atoms: _315  and  _317
REMARK  115  A    between atoms: _317  and  _318
REMARK  116  A    between atoms: _317  and  _320
REMARK  117  A    between atoms: _320  and  _321
REMARK  118  A    between atoms: _324  and  _326
REMARK  119  A    between atoms: _326  and  _327
REMARK  120  A    between atoms: _330  and  _332
REMARK  121  A    between atoms: _332  and  _333
REMARK  122  A    between atoms: _336  and  _338
REMARK  123  A    between atoms: _338  and  _339
REMARK  124  A    between atoms: _338  and  _341
REMARK  125  A    between atoms: _341  and  _342
REMARK  126  A    between atoms: _347  and  _348
REMARK  127  A    between atoms: _350  and  _352
REMARK  128  A    between atoms: _352  and  _353
REMARK  129  A    between atoms: _352  and  _355
REMARK  130  A    between atoms: _355  and  _356
REMARK  131  A    between atoms: _359  and  _361
REMARK  132  A    between atoms: _361  and  _362
REMARK  133  A    between atoms: _361  and  _364
REMARK  134  A    between atoms: _364  and  _365
REMARK  135  A    between atoms: _368  and  _370
REMARK  136  A    between atoms: _370  and  _371
REMARK  137  A    between atoms: _370  and  _373
REMARK  138  A    between atoms: _373  and  _374
REMARK  139  A    between atoms: _374  and  _375
REMARK  140  A    between atoms: _378  and  _380
REMARK  141  A    between atoms: _380  and  _381
REMARK  142  A    between atoms: _380  and  _383
REMARK  143  A    between atoms: _383  and  _384
REMARK  144  A    between atoms: _384  and  _385
REMARK  145  A    between atoms: _385  and  _386
REMARK  146  A    between atoms: _395  and  _397
REMARK  147  A    between atoms: _397  and  _398
REMARK  148  A    between atoms: _400  and  _402
REMARK  149  A    between atoms: _402  and  _403
REMARK  150  A    between atoms: _402  and  _405
REMARK  151  A    between atoms: _405  and  _406
REMARK  152  A    between atoms: _409  and  _411
REMARK  153  A    between atoms: _411  and  _412
REMARK                            x       y       z     vdW  Elec       q    Type
REMARK                         _______ _______ _______ _____ _____    ______ ____
ROOT
ATOM      1  C   UNK A   1      36.845  61.524  13.553  0.00  0.00    +0.000 C 
ATOM      2  C   UNK A   1      37.506  62.900  13.475  0.00  0.00    +0.000 C 
ATOM      3  O   UNK A   1      36.959  63.896  13.953  0.00  0.00    +0.000 OA
ATOM      4  N   UNK A   2      38.689  62.941  12.870  0.00  0.00    +0.000 N 
ATOM      5  C   UNK A   2      39.454  64.179  12.742  0.00  0.00    +0.000 C 
ATOM      6  C   UNK A   2      39.594  64.634  11.292  0.00  0.00    +0.000 C 
ATOM      7  N   UNK A   3      38.922  65.726  10.950  0.00  0.00    +0.000 N 
ATOM      8  H   UNK A   3      38.342  66.212  11.664  0.00  0.00    +0.000 HD
ATOM      9  C   UNK A   3      38.980  66.259   9.594  0.00  0.00    +0.000 C 
ATOM     10  C   UNK A   3      37.782  67.165   9.332  0.00  0.00    +0.000 C 
ATOM     11  C   UNK A   3      36.488  66.407   9.296  0.00  0.00    +0.000 C 
ATOM     12  O   UNK A   3      35.548  66.791  10.028  0.00  0.00    +0.000 OA
ATOM     13  O   UNK A   3      36.419  65.428   8.531  0.00  0.00    +0.000 OA
ATOM     14 ZN   UNK A   1      34.613  64.236   8.017  0.00  0.00    +0.000 Zn
ATOM     15  N   UNK A   1      35.096  62.753   9.506  0.00  0.00    +0.000 N 
ATOM     16  C   UNK A   1      34.829  62.929  10.842  0.00  0.00    +0.000 A 
ATOM     17  C   UNK A   1      35.395  61.894  11.502  0.00  0.00    +0.000 A 
ATOM     18  N   UNK A   1      35.998  61.109  10.541  0.00  0.00    +0.000 NA
ATOM     19  C   UNK A   1      35.803  61.649   9.351  0.00  0.00    +0.000 A 
ATOM     20  O   UNK A   2      40.299  64.004  10.502  0.00  0.00    +0.000 OA
ATOM     21  H   UNK A   2      39.083  62.063  12.475  0.00  0.00    +0.000 HD
ATOM     22  C   UNK A   1      35.430  61.565  12.963  0.00  0.00    +0.000 C 
ENDROOT
BRANCH   9  23
ATOM     23  C   UNK A   3      40.243  67.061   9.343  0.00  0.00    +0.000 C 
ATOM     24  O   UNK A   3      40.520  68.015  10.064  0.00  0.00    +0.000 OA
ATOM     25  N   GLY A   4      41.043  66.665   8.336  0.00  0.00    +0.000 N 
ATOM     26  CA  GLY A   4      42.272  67.404   8.027  0.00  0.00    +0.000 C 
ATOM     27  CB  GLY A   4      43.040  66.445   7.119  0.00  0.00    +0.000 C 
ATOM     28  CG  GLY A   4      42.544  65.092   7.542  0.00  0.00    +0.000 C 
ATOM     29  CD  GLY A   4      41.062  65.341   7.690  0.00  0.00    +0.000 C 
BRANCH  26  30
ATOM     30  C   GLY A   4      41.837  68.676   7.301  0.00  0.00    +0.000 C 
ATOM     31  N   GLY A   5      41.052  69.481   8.009  0.00  0.00    +0.000 N 
ATOM     32  H   GLY A   5      40.803  69.217   8.984  0.00  0.00    +0.000 HD
ATOM     33  O   GLY A   4      42.176  68.904   6.138  0.00  0.00    +0.000 OA
BRANCH  31  34
ATOM     34  CA  GLY A   5      40.534  70.715   7.459  0.00  0.00    +0.000 C 
BRANCH  34  35
ATOM     35  C   GLY A   5      39.052  70.606   7.138  0.00  0.00    +0.000 C 
ATOM     36  N   TRP A   6      38.295  71.640   7.491  0.00  0.00    +0.000 N 
ATOM     37  H   TRP A   6      38.739  72.437   7.990  0.00  0.00    +0.000 HD
ATOM     38  O   GLY A   5      38.594  69.590   6.612  0.00  0.00    +0.000 OA
BRANCH  36  39
ATOM     39  CA  TRP A   6      36.860  71.700   7.205  0.00  0.00    +0.000 C 
BRANCH  39  40
ATOM     40  C   TRP A   6      36.348  73.070   7.645  0.00  0.00    +0.000 C 
ATOM     41  N   ILE A   7      36.016  73.214   8.924  0.00  0.00    +0.000 N 
ATOM     42  H   ILE A   7      36.083  72.408   9.578  0.00  0.00    +0.000 HD
ATOM     43  O   TRP A   6      36.254  73.993   6.835  0.00  0.00    +0.000 OA
BRANCH  41  44
ATOM     44  CA  ILE A   7      35.558  74.510   9.401  0.00  0.00    +0.000 C 
BRANCH  44  45
ATOM     45  C   ILE A   7      36.748  75.288   9.959  0.00  0.00    +0.000 C 
ATOM     46  O   ILE A   7      36.662  76.492  10.195  0.00  0.00    +0.000 OA
ENDBRANCH  44  45
BRANCH  44  47
ATOM     47  CB  ILE A   7      34.430  74.384  10.453  0.00  0.00    +0.000 C 
ATOM     48  CG2 ILE A   7      33.190  73.797   9.797  0.00  0.00    +0.000 C 
BRANCH  47  49
ATOM     49  CG1 ILE A   7      34.889  73.552  11.646  0.00  0.00    +0.000 C 
ATOM     50  CD1 ILE A   7      33.850  73.468  12.751  0.00  0.00    +0.000 C 
ENDBRANCH  47  49
ENDBRANCH  44  47
ENDBRANCH  41  44
ENDBRANCH  39  40
BRANCH  39  51
ATOM     51  CB  TRP A   6      36.080  70.583   7.924  0.00  0.00    +0.000 C 
BRANCH  51  52
ATOM     52  CG  TRP A   6      34.591  70.641   7.626  0.00  0.00    +0.000 A 
ATOM     53  CD2 TRP A   6      33.511  70.374   8.534  0.00  0.00    +0.000 A 
ATOM     54  CE3 TRP A   6      33.444  69.971   9.876  0.00  0.00    +0.000 A 
ATOM     55  CZ3 TRP A   6      32.187  69.807  10.467  0.00  0.00    +0.000 A 
ATOM     56  CH2 TRP A   6      31.010  70.039   9.738  0.00  0.00    +0.000 A 
ATOM     57  CZ2 TRP A   6      31.048  70.433   8.420  0.00  0.00    +0.000 A 
ATOM     58  CE2 TRP A   6      32.307  70.597   7.829  0.00  0.00    +0.000 A 
ATOM     59  NE1 TRP A   6      32.639  70.974   6.554  0.00  0.00    +0.000 N 
ATOM     60  HE1 TRP A   6      31.964  71.206   5.797  0.00  0.00    +0.000 HD
ATOM     61  CD1 TRP A   6      34.007  70.996   6.437  0.00  0.00    +0.000 A 
ENDBRANCH  51  52
ENDBRANCH  39  51
ENDBRANCH  36  39
ENDBRANCH  34  35
ENDBRANCH  31  34
ENDBRANCH  26  30
ENDBRANCH   9  23
BRANCH  14  62
ATOM     62  N   UNK A   1      35.509  63.505   6.163  0.00  0.00    +0.000 N 
ATOM     63  C   UNK A   1      36.539  62.722   5.901  0.00  0.00    +0.000 A 
ATOM     64  N   UNK A   1      36.674  62.637   4.591  0.00  0.00    +0.000 NA
ATOM     65  C   UNK A   1      35.695  63.394   3.981  0.00  0.00    +0.000 A 
ATOM     66  C   UNK A   1      34.963  63.939   4.980  0.00  0.00    +0.000 A 
BRANCH  65  67
ATOM     67  C   UNK A   1      35.573  63.511   2.498  0.00  0.00    +0.000 C 
BRANCH  67  68
ATOM     68  C   UNK A   1      36.456  64.607   1.876  0.00  0.00    +0.000 C 
BRANCH  68  69
ATOM     69  N   UNK A   1      37.850  64.442   2.275  0.00  0.00    +0.000 N 
ATOM     70  H   UNK A   1      38.079  63.878   3.118  0.00  0.00    +0.000 HD
ATOM     71  C   UNK A   1      38.835  65.005   1.572  0.00  0.00    +0.000 C 
ATOM     72  O   UNK A   1      38.630  65.703   0.575  0.00  0.00    +0.000 OA
BRANCH  71  73
ATOM     73  C   UNK A   1      40.269  64.758   2.056  0.00  0.00    +0.000 C 
BRANCH  73  74
ATOM     74  N   UNK A   1      41.189  64.845   0.923  0.00  0.00    +0.000 NA
ATOM     75  H   UNK A   1      42.026  65.458   0.997  0.00  0.00    +0.000 HD
ENDBRANCH  73  74
BRANCH  73  76
ATOM     76  C   UNK A   1      40.648  65.803   3.109  0.00  0.00    +0.000 C 
BRANCH  76  77
ATOM     77  C   UNK A   1      39.661  65.915   4.227  0.00  0.00    +0.000 A 
ATOM     78  C   UNK A   1      39.002  64.965   4.931  0.00  0.00    +0.000 A 
ATOM     79  N   UNK A   1      38.204  65.615   5.841  0.00  0.00    +0.000 NA
ATOM     80  C   UNK A   1      38.368  66.917   5.702  0.00  0.00    +0.000 A 
ATOM     81  N   UNK A   1      39.244  67.127   4.735  0.00  0.00    +0.000 NA
ENDBRANCH  76  77
ENDBRANCH  73  76
ENDBRANCH  71  73
ENDBRANCH  68  69
BRANCH  68  82
ATOM     82  C   UNK A   1      35.836  65.993   2.117  0.00  0.00    +0.000 C 
ATOM     83  N   UNK A   3      36.666  66.965   2.497  0.00  0.00    +0.000 N 
ATOM     84  H   UNK A   3      37.662  66.733   2.688  0.00  0.00    +0.000 HD
ATOM     85  O   UNK A   1      34.624  66.165   1.966  0.00  0.00    +0.000 OA
BRANCH  83  86
ATOM     86  C   UNK A   3      36.215  68.352   2.653  0.00  0.00    +0.000 C 
BRANCH  86  87
ATOM     87  C   UNK A   3      37.162  69.220   1.838  0.00  0.00    +0.000 C 
ATOM     88  O   UNK A   3      37.062  70.448   1.834  0.00  0.00    +0.000 OA
ATOM     89  N   GLY A   4      38.092  68.563   1.152  0.00  0.00    +0.000 N 
ATOM     90  H   GLY A   4      38.138  67.526   1.209  0.00  0.00    +0.000 HD
BRANCH  89  91
ATOM     91  CA  GLY A   4      39.044  69.280   0.324  0.00  0.00    +0.000 C 
BRANCH  91  92
ATOM     92  C   GLY A   4      38.550  69.382  -1.105  0.00  0.00    +0.000 C 
ATOM     93  O   GLY A   4      37.877  70.344  -1.473  0.00  0.00    +0.000 OA
ENDBRANCH  91  92
ENDBRANCH  89  91
ENDBRANCH  86  87
BRANCH  86  94
ATOM     94  C   UNK A   3      36.233  68.815   4.107  0.00  0.00    +0.000 C 
BRANCH  94  95
ATOM     95  C   UNK A   3      35.116  68.215   4.920  0.00  0.00    +0.000 C 
ATOM     96  O   UNK A   3      35.423  67.636   5.976  0.00  0.00    +0.000 OA
ATOM     97  O   UNK A   3      33.941  68.330   4.506  0.00  0.00    +0.000 OA
ENDBRANCH  94  95
ENDBRANCH  86  94
ENDBRANCH  83  86
ENDBRANCH  68  82
ENDBRANCH  67  68
ENDBRANCH  65  67
ENDBRANCH  14  62
BRANCH   1  98
ATOM     98  N   UNK A   1      36.796  61.054  14.930  0.00  0.00    +0.000 NA
ATOM     99  H   UNK A   1      35.918  61.159  15.477  0.00  0.00    +0.000 HD
ENDBRANCH   1  98
BRANCH   5 100
ATOM    100  C   UNK A   2      40.854  64.000  13.352  0.00  0.00    +0.000 C 
BRANCH 100 101
ATOM    101  C   UNK A   2      40.820  63.834  14.866  0.00  0.00    +0.000 C 
ATOM    102  N   UNK A   2      41.386  64.801  15.570  0.00  0.00    +0.000 N 
ATOM    103  H   UNK A   2      41.396  64.751  16.609  0.00  0.00    +0.000 HD
ATOM    104  H   UNK A   2      41.821  65.611  15.085  0.00  0.00    +0.000 HD
ATOM    105  O   UNK A   2      40.290  62.851  15.392  0.00  0.00    +0.000 OA
ENDBRANCH 100 101
ENDBRANCH   5 100
BRANCH  14 106
ATOM    106  O   UNK A   1      32.707  63.465   7.490  0.00  0.00    +0.000 OA
BRANCH 106 107
ATOM    107  C   UNK A   1      32.205  62.339   7.362  0.00  0.00    +0.000 C 
ATOM    108  O   UNK A   1      30.977  62.143   7.462  0.00  0.00    +0.000 OA
BRANCH 107 109
ATOM    109  C   UNK A   1      33.132  61.167   7.086  0.00  0.00    +0.000 C 
BRANCH 109 110
ATOM    110  C   UNK A   1      32.436  60.046   6.320  0.00  0.00    +0.000 C 
BRANCH 110 111
ATOM    111  C   UNK A   1      32.339  60.449   4.837  0.00  0.00    +0.000 C 
ATOM    112  O   UNK A   1      31.644  61.412   4.515  0.00  0.00    +0.000 OA
ATOM    113  N   UNK A   3      33.044  59.756   3.923  0.00  0.00    +0.000 N 
ATOM    114  C   UNK A   3      34.083  58.716   4.043  0.00  0.00    +0.000 C 
ATOM    115  C   UNK A   3      34.826  58.848   2.722  0.00  0.00    +0.000 C 
ATOM    116  C   UNK A   3      33.716  59.159   1.758  0.00  0.00    +0.000 C 
ATOM    117  C   UNK A   3      32.891  60.190   2.525  0.00  0.00    +0.000 C 
BRANCH 117 118
ATOM    118  C   UNK A   3      31.404  60.167   2.146  0.00  0.00    +0.000 C 
ATOM    119  O   UNK A   3      30.658  59.289   2.580  0.00  0.00    +0.000 OA
ATOM    120  N   GLY A   4      30.976  61.130   1.337  0.00  0.00    +0.000 N 
ATOM    121  H   GLY A   4      31.660  61.821   0.967  0.00  0.00    +0.000 HD
BRANCH 120 122
ATOM    122  CA  GLY A   4      29.567  61.246   0.952  0.00  0.00    +0.000 C 
BRANCH 122 123
ATOM    123  C   GLY A   4      29.212  60.332  -0.228  0.00  0.00    +0.000 C 
ATOM    124  O   GLY A   4      28.968  60.784  -1.344  0.00  0.00    +0.000 OA
ENDBRANCH 122 123
BRANCH 122 125
ATOM    125  CB  GLY A   4      29.261  62.716   0.629  0.00  0.00    +0.000 C 
BRANCH 125 126
ATOM    126  CG  GLY A   4      30.087  63.697   1.437  0.00  0.00    +0.000 A 
ATOM    127  CD2 GLY A   4      30.237  63.538   2.813  0.00  0.00    +0.000 A 
ATOM    128  CE2 GLY A   4      31.009  64.435   3.559  0.00  0.00    +0.000 A 
ATOM    129  CZ  GLY A   4      31.639  65.506   2.929  0.00  0.00    +0.000 A 
ATOM    130  CE1 GLY A   4      31.496  65.675   1.559  0.00  0.00    +0.000 A 
ATOM    131  CD1 GLY A   4      30.722  64.772   0.819  0.00  0.00    +0.000 A 
ENDBRANCH 125 126
ENDBRANCH 122 125
ENDBRANCH 120 122
ENDBRANCH 117 118
ENDBRANCH 110 111
BRANCH 110 132
ATOM    132  N   UNK A   1      32.993  58.753   6.720  0.00  0.00    +0.000 N 
ATOM    133  C   UNK A   1      32.236  57.916   7.434  0.00  0.00    +0.000 C 
ATOM    134  O   UNK A   1      31.079  58.176   7.733  0.00  0.00    +0.000 OA
ATOM    135  H   UNK A   1      33.963  58.490   6.452  0.00  0.00    +0.000 HD
BRANCH 133 136
ATOM    136  C   UNK A   1      32.828  56.590   7.877  0.00  0.00    +0.000 C 
BRANCH 136 137
ATOM    137  N   UNK A   1      34.124  56.238   7.318  0.00  0.00    +0.000 NA
ATOM    138  H   UNK A   1      34.991  56.599   7.765  0.00  0.00    +0.000 HD
ENDBRANCH 136 137
BRANCH 136 139
ATOM    139  C   UNK A   1      32.859  56.595   9.438  0.00  0.00    +0.000 C 
ATOM    140  C   UNK A   1      33.249  55.212   9.962  0.00  0.00    +0.000 C 
BRANCH 139 141
ATOM    141  C   UNK A   1      33.822  57.679   9.940  0.00  0.00    +0.000 C 
ATOM    142  C   UNK A   1      33.924  57.786  11.453  0.00  0.00    +0.000 C 
ENDBRANCH 139 141
ENDBRANCH 136 139
ENDBRANCH 133 136
ENDBRANCH 110 132
ENDBRANCH 109 110
ENDBRANCH 107 109
ENDBRANCH 106 107
ENDBRANCH  14 106
TORSDOF 45
REMARK  Name = ../refined-set-2016/1ps3/1ps3_pocket.pdb
REMARK  153 active torsions:
REMARK  status: ('A' for Active; 'I' for Inactive)
REMARK    1  A    between atoms: _1  and  _3
REMARK    2  A    between atoms: _14  and  _17
REMARK    3  A    between atoms: _17  and  _18
REMARK    4  A    between atoms: _25  and  _26
REMARK    5  A    between atoms: _33  and  _34
REMARK    6  A    between atoms: _39  and  _41
REMARK    7  A    between atoms: _41  and  _42
REMARK    8  A    between atoms: _44  and  _46
REMARK    9  A    between atoms: _46  and  _47
REMARK   10  A    between atoms: _46  and  _49
REMARK   11  A    between atoms: _49  and  _50
REMARK   12  A    between atoms: _60  and  _62
REMARK   13  A    between atoms: _62  and  _63
REMARK   14  A    between atoms: _62  and  _65
REMARK   15  A    between atoms: _65  and  _66
REMARK   16  A    between atoms: _69  and  _71
REMARK   17  A    between atoms: _71  and  _72
REMARK   18  A    between atoms: _71  and  _74
REMARK   19  A    between atoms: _74  and  _75
REMARK   20  A    between atoms: _80  and  _81
REMARK   21  A    between atoms: _83  and  _85
REMARK   22  A    between atoms: _85  and  _86
REMARK   23  A    between atoms: _85  and  _88
REMARK   24  A    between atoms: _88  and  _89
REMARK   25  A    between atoms: _89  and  _90
REMARK   26  A    between atoms: _93  and  _95
REMARK   27  A    between atoms: _95  and  _96
REMARK   28  A    between atoms: _95  and  _98
REMARK   29  A    between atoms: _98  and  _99
REMARK   30  A    between atoms: _99  and  _100
REMARK   31  A    between atoms: _102  and  _104
REMARK   32  A    between atoms: _104  and  _105
REMARK   33  A    between atoms: _104  and  _107
REMARK   34  A    between atoms: _107  and  _108
REMARK   35  A    between atoms: _111  and  _113
REMARK   36  A    between atoms: _113  and  _114
REMARK   37  A    between atoms: _113  and  _116
REMARK   38  A    between atoms: _116  and  _117
REMARK   39  A    between atoms: _117  and  _118
REMARK   40  A    between atoms: _118  and  ZN_414
REMARK   41  A    between atoms: _121  and  _122
REMARK   42  A    between atoms: _127  and  _129
REMARK   43  A    between atoms: _129  and  _130
REMARK   44  A    between atoms: _129  and  _132
REMARK   45  A    between atoms: _132  and  _133
REMARK   46  A    between atoms: _139  and  _141
REMARK   47  A    between atoms: _141  and  _142
REMARK   48  A    between atoms: _141  and  _144
REMARK   49  A    between atoms: _144  and  _145
REMARK   50  A    between atoms: _145  and  _146
REMARK   51  A    between atoms: _146  and  _147
REMARK   52  A    between atoms: _156  and  _158
REMARK   53  A    between atoms: _158  and  _159
REMARK   54  A    between atoms: _158  and  _161
REMARK   55  A    between atoms: _161  and  _162
REMARK   56  A    between atoms: _167  and  _168
REMARK   57  A    between atoms: _170  and  _172
REMARK   58  A    between atoms: _172  and  _173
REMARK   59  A    between atoms: _172  and  _175
REMARK   60  A    between atoms: _175  and  _176
REMARK   61  A    between atoms: _178  and  _180
REMARK   62  A    between atoms: _180  and  _181
REMARK   63  A    between atoms: _180  and  _183
REMARK   64  A    between atoms: _183  and  _184
REMARK   65  A    between atoms: _189  and  _190
REMARK   66  A    between atoms: _192  and  _194
REMARK   67  A    between atoms: _194  and  _195
REMARK   68  A    between atoms: _194  and  _197
REMARK   69  A    between atoms: _197  and  _198
REMARK   70  A    between atoms: _201  and  _203
REMARK   71  A    between atoms: _203  and  _204
REMARK   72  A    between atoms: _203  and  _206
REMARK   73  A    between atoms: _206  and  _207
REMARK   74  A    between atoms: _210  and  _212
REMARK   75  A    between atoms: _212  and  _213
REMARK   76  A    between atoms: _212  and  _215
REMARK   77  A    between atoms: _215  and  _216
REMARK   78  A    between atoms: _219  and  _221
REMARK   79  A    between atoms: _221  and  _222
REMARK   80  A    between atoms: _221  and  _224
REMARK   81  A    between atoms: _224  and  _225
REMARK   82  A    between atoms: _231  and  _233
REMARK   83  A    between atoms: _233  and  _234
REMARK   84  A    between atoms: _233  and  _236
REMARK   85  A    between atoms: _236  and  _237
REMARK   86  A    between atoms: _242  and  _243
REMARK   87  A    between atoms: _245  and  _247
REMARK   88  A    between atoms: _247  and  _248
REMARK   89  A    between atoms: _247  and  _250
REMARK   90  A    between atoms: _250  and  _251
REMARK   91  A    between atoms: _254  and  _256
REMARK   92  A    between atoms: _256  and  _257
REMARK   93  A    between atoms: _256  and  _259
REMARK   94  A    between atoms: _259  and  _260
REMARK   95  A    between atoms: _270  and  _272
REMARK   96  A    between atoms: _272  and  _273
REMARK   97  A    between atoms: _272  and  _275
REMARK   98  A    between atoms: _275  and  _276
REMARK   99  A    between atoms: _281  and  _283
REMARK  100  A    between atoms: _283  and  _284
REMARK  101  A    between atoms: _283  and  _286
REMARK  102  A    between atoms: _286  and  _287
REMARK  103  A    between atoms: _291  and  ZN_414
REMARK  104  A    between atoms: _292  and  _294
REMARK  105  A    between atoms: _294  and  _295
REMARK  106  A    between atoms: _294  and  _297
REMARK  107  A    between atoms: _297  and  _298
REMARK  108  A    between atoms: _301  and  _303
REMARK  109  A    between atoms: _303  and  _304
REMARK  110  A    between atoms: _306  and  _308
REMARK  111  A    between atoms: _308  and  _309
REMARK  112  A    between atoms: _308  and  _311
REMARK  113  A    between atoms: _311  and  _312
REMARK  114  A    between atoms: _315  and  _317
REMARK  115  A    between atoms: _317  and  _318
REMARK  116  A    between atoms: _317  and  _320
REMARK  117  A    between atoms: _320  and  _321
REMARK  118  A    between atoms: _324  and  _326
REMARK  119  A    between atoms: _326  and  _327
REMARK  120  A    between atoms: _330  and  _332
REMARK  121  A    between atoms: _332  and  _333
REMARK  122  A    between atoms: _336  and  _338
REMARK  123  A    between atoms: _338  and  _339
REMARK  124  A    between atoms: _338  and  _341
REMARK  125  A    between atoms: _341  and  _342
REMARK  126  A    between atoms: _347  and  _348
REMARK  127  A    between atoms: _350  and  _352
REMARK  128  A    between atoms: _352  and  _353
REMARK  129  A    between atoms: _352  and  _355
REMARK  130  A    between atoms: _355  and  _356
REMARK  131  A    between atoms: _359  and  _361
REMARK  132  A    between atoms: _361  and  _362
REMARK  133  A    between atoms: _361  and  _364
REMARK  134  A    between atoms: _364  and  _365
REMARK  135  A    between atoms: _368  and  _370
REMARK  136  A    between atoms: _370  and  _371
REMARK  137  A    between atoms: _370  and  _373
REMARK  138  A    between atoms: _373  and  _374
REMARK  139  A    between atoms: _374  and  _375
REMARK  140  A    between atoms: _378  and  _380
REMARK  141  A    between atoms: _380  and  _381
REMARK  142  A    between atoms: _380  and  _383
REMARK  143  A    between atoms: _383  and  _384
REMARK  144  A    between atoms: _384  and  _385
REMARK  145  A    between atoms: _385  and  _386
REMARK  146  A    between atoms: _395  and  _397
REMARK  147  A    between atoms: _397  and  _398
REMARK  148  A    between atoms: _400  and  _402
REMARK  149  A    between atoms: _402  and  _403
REMARK  150  A    between atoms: _402  and  _405
REMARK  151  A    between atoms: _405  and  _406
REMARK  152  A    between atoms: _409  and  _411
REMARK  153  A    between atoms: _411  and  _412
REMARK                            x       y       z     vdW  Elec       q    Type
REMARK                         _______ _______ _______ _____ _____    ______ ____
ROOT
ATOM      1  CG  TYR A   1      40.457  71.063  12.788  0.00  0.00    -0.020 A 
ATOM      2  CD2 TYR A   1      39.412  71.358  13.671  0.00  0.00    -0.001 A 
ATOM      3  CE2 TYR A   1      38.089  71.463  13.209  0.00  0.00    +0.036 A 
ATOM      4  CZ  TYR A   1      37.817  71.272  11.854  0.00  0.00    +0.134 A 
ATOM      5  CE1 TYR A   1      38.840  70.986  10.974  0.00  0.00    +0.036 A 
ATOM      6  CD1 TYR A   1      40.145  70.887  11.440  0.00  0.00    -0.001 A 
ENDROOT
BRANCH   4   7
ATOM      7  OH  TYR A   1      36.534  71.351  11.361  0.00  0.00    -0.506 OA
ATOM      8  HH  TYR A   1      35.910  71.561  12.100  0.00  0.00    +0.292 HD
ENDBRANCH   4   7
BRANCH   1   9
ATOM      9  CB  TYR A   1      41.869  70.827  13.276  0.00  0.00    +0.051 C 
BRANCH   9  10
ATOM     10  CA  TYR A   1      42.465  71.849  14.245  0.00  0.00    +0.137 C 
BRANCH  10  11
ATOM     11  N   TYR A   1      43.029  73.000  13.541  0.00  0.00    -0.239 NA
ATOM     12  H   TYR A   1      43.017  73.018  12.501  0.00  0.00    +0.142 HD
ENDBRANCH  10  11
BRANCH  10  13
ATOM     13  C   TYR A   1      43.555  71.133  15.026  0.00  0.00    +0.224 C 
ATOM     14  O   TYR A   1      43.313  70.629  16.123  0.00  0.00    -0.287 OA
ENDBRANCH  10  13
ENDBRANCH   9  10
ENDBRANCH   1   9
TORSDOF 5
REMARK  Name = ../refined-set-2016/1ps3/1ps3_pocket.pdb
REMARK  153 active torsions:
REMARK  status: ('A' for Active; 'I' for Inactive)
REMARK    1  A    between atoms: _1  and  _3
REMARK    2  A    between atoms: _14  and  _17
REMARK    3  A    between atoms: _17  and  _18
REMARK    4  A    between atoms: _25  and  _26
REMARK    5  A    between atoms: _33  and  _34
REMARK    6  A    between atoms: _39  and  _41
REMARK    7  A    between atoms: _41  and  _42
REMARK    8  A    between atoms: _44  and  _46
REMARK    9  A    between atoms: _46  and  _47
REMARK   10  A    between atoms: _46  and  _49
REMARK   11  A    between atoms: _49  and  _50
REMARK   12  A    between atoms: _60  and  _62
REMARK   13  A    between atoms: _62  and  _63
REMARK   14  A    between atoms: _62  and  _65
REMARK   15  A    between atoms: _65  and  _66
REMARK   16  A    between atoms: _69  and  _71
REMARK   17  A    between atoms: _71  and  _72
REMARK   18  A    between atoms: _71  and  _74
REMARK   19  A    between atoms: _74  and  _75
REMARK   20  A    between atoms: _80  and  _81
REMARK   21  A    between atoms: _83  and  _85
REMARK   22  A    between atoms: _85  and  _86
REMARK   23  A    between atoms: _85  and  _88
REMARK   24  A    between atoms: _88  and  _89
REMARK   25  A    between atoms: _89  and  _90
REMARK   26  A    between atoms: _93  and  _95
REMARK   27  A    between atoms: _95  and  _96
REMARK   28  A    between atoms: _95  and  _98
REMARK   29  A    between atoms: _98  and  _99
REMARK   30  A    between atoms: _99  and  _100
REMARK   31  A    between atoms: _102  and  _104
REMARK   32  A    between atoms: _104  and  _105
REMARK   33  A    between atoms: _104  and  _107
REMARK   34  A    between atoms: _107  and  _108
REMARK   35  A    between atoms: _111  and  _113
REMARK   36  A    between atoms: _113  and  _114
REMARK   37  A    between atoms: _113  and  _116
REMARK   38  A    between atoms: _116  and  _117
REMARK   39  A    between atoms: _117  and  _118
REMARK   40  A    between atoms: _118  and  ZN_414
REMARK   41  A    between atoms: _121  and  _122
REMARK   42  A    between atoms: _127  and  _129
REMARK   43  A    between atoms: _129  and  _130
REMARK   44  A    between atoms: _129  and  _132
REMARK   45  A    between atoms: _132  and  _133
REMARK   46  A    between atoms: _139  and  _141
REMARK   47  A    between atoms: _141  and  _142
REMARK   48  A    between atoms: _141  and  _144
REMARK   49  A    between atoms: _144  and  _145
REMARK   50  A    between atoms: _145  and  _146
REMARK   51  A    between atoms: _146  and  _147
REMARK   52  A    between atoms: _156  and  _158
REMARK   53  A    between atoms: _158  and  _159
REMARK   54  A    between atoms: _158  and  _161
REMARK   55  A    between atoms: _161  and  _162
REMARK   56  A    between atoms: _167  and  _168
REMARK   57  A    between atoms: _170  and  _172
REMARK   58  A    between atoms: _172  and  _173
REMARK   59  A    between atoms: _172  and  _175
REMARK   60  A    between atoms: _175  and  _176
REMARK   61  A    between atoms: _178  and  _180
REMARK   62  A    between atoms: _180  and  _181
REMARK   63  A    between atoms: _180  and  _183
REMARK   64  A    between atoms: _183  and  _184
REMARK   65  A    between atoms: _189  and  _190
REMARK   66  A    between atoms: _192  and  _194
REMARK   67  A    between atoms: _194  and  _195
REMARK   68  A    between atoms: _194  and  _197
REMARK   69  A    between atoms: _197  and  _198
REMARK   70  A    between atoms: _201  and  _203
REMARK   71  A    between atoms: _203  and  _204
REMARK   72  A    between atoms: _203  and  _206
REMARK   73  A    between atoms: _206  and  _207
REMARK   74  A    between atoms: _210  and  _212
REMARK   75  A    between atoms: _212  and  _213
REMARK   76  A    between atoms: _212  and  _215
REMARK   77  A    between atoms: _215  and  _216
REMARK   78  A    between atoms: _219  and  _221
REMARK   79  A    between atoms: _221  and  _222
REMARK   80  A    between atoms: _221  and  _224
REMARK   81  A    between atoms: _224  and  _225
REMARK   82  A    between atoms: _231  and  _233
REMARK   83  A    between atoms: _233  and  _234
REMARK   84  A    between atoms: _233  and  _236
REMARK   85  A    between atoms: _236  and  _237
REMARK   86  A    between atoms: _242  and  _243
REMARK   87  A    between atoms: _245  and  _247
REMARK   88  A    between atoms: _247  and  _248
REMARK   89  A    between atoms: _247  and  _250
REMARK   90  A    between atoms: _250  and  _251
REMARK   91  A    between atoms: _254  and  _256
REMARK   92  A    between atoms: _256  and  _257
REMARK   93  A    between atoms: _256  and  _259
REMARK   94  A    between atoms: _259  and  _260
REMARK   95  A    between atoms: _270  and  _272
REMARK   96  A    between atoms: _272  and  _273
REMARK   97  A    between atoms: _272  and  _275
REMARK   98  A    between atoms: _275  and  _276
REMARK   99  A    between atoms: _281  and  _283
REMARK  100  A    between atoms: _283  and  _284
REMARK  101  A    between atoms: _283  and  _286
REMARK  102  A    between atoms: _286  and  _287
REMARK  103  A    between atoms: _291  and  ZN_414
REMARK  104  A    between atoms: _292  and  _294
REMARK  105  A    between atoms: _294  and  _295
REMARK  106  A    between atoms: _294  and  _297
REMARK  107  A    between atoms: _297  and  _298
REMARK  108  A    between atoms: _301  and  _303
REMARK  109  A    between atoms: _303  and  _304
REMARK  110  A    between atoms: _306  and  _308
REMARK  111  A    between atoms: _308  and  _309
REMARK  112  A    between atoms: _308  and  _311
REMARK  113  A    between atoms: _311  and  _312
REMARK  114  A    between atoms: _315  and  _317
REMARK  115  A    between atoms: _317  and  _318
REMARK  116  A    between atoms: _317  and  _320
REMARK  117  A    between atoms: _320  and  _321
REMARK  118  A    between atoms: _324  and  _326
REMARK  119  A    between atoms: _326  and  _327
REMARK  120  A    between atoms: _330  and  _332
REMARK  121  A    between atoms: _332  and  _333
REMARK  122  A    between atoms: _336  and  _338
REMARK  123  A    between atoms: _338  and  _339
REMARK  124  A    between atoms: _338  and  _341
REMARK  125  A    between atoms: _341  and  _342
REMARK  126  A    between atoms: _347  and  _348
REMARK  127  A    between atoms: _350  and  _352
REMARK  128  A    between atoms: _352  and  _353
REMARK  129  A    between atoms: _352  and  _355
REMARK  130  A    between atoms: _355  and  _356
REMARK  131  A    between atoms: _359  and  _361
REMARK  132  A    between atoms: _361  and  _362
REMARK  133  A    between atoms: _361  and  _364
REMARK  134  A    between atoms: _364  and  _365
REMARK  135  A    between atoms: _368  and  _370
REMARK  136  A    between atoms: _370  and  _371
REMARK  137  A    between atoms: _370  and  _373
REMARK  138  A    between atoms: _373  and  _374
REMARK  139  A    between atoms: _374  and  _375
REMARK  140  A    between atoms: _378  and  _380
REMARK  141  A    between atoms: _380  and  _381
REMARK  142  A    between atoms: _380  and  _383
REMARK  143  A    between atoms: _383  and  _384
REMARK  144  A    between atoms: _384  and  _385
REMARK  145  A    between atoms: _385  and  _386
REMARK  146  A    between atoms: _395  and  _397
REMARK  147  A    between atoms: _397  and  _398
REMARK  148  A    between atoms: _400  and  _402
REMARK  149  A    between atoms: _402  and  _403
REMARK  150  A    between atoms: _402  and  _405
REMARK  151  A    between atoms: _405  and  _406
REMARK  152  A    between atoms: _409  and  _411
REMARK  153  A    between atoms: _411  and  _412
REMARK                            x       y       z     vdW  Elec       q    Type
REMARK                         _______ _______ _______ _____ _____    ______ ____
ROOT
ATOM      1  CA  GLU A   1      44.185  60.184   9.439  0.00  0.00    +0.134 C 
ENDROOT
BRANCH   1   2
ATOM      2  N   GLU A   1      43.438  59.138  10.139  0.00  0.00    -0.239 NA
ATOM      3  H   GLU A   1      42.862  59.401  10.964  0.00  0.00    +0.142 HD
ENDBRANCH   1   2
BRANCH   1   4
ATOM      4  C   GLU A   1      45.669  60.296   9.797  0.00  0.00    +0.224 C 
ATOM      5  O   GLU A   1      46.031  60.933  10.788  0.00  0.00    -0.287 OA
ENDBRANCH   1   4
BRANCH   1   6
ATOM      6  CB  GLU A   1      43.492  61.529   9.674  0.00  0.00    +0.037 C 
BRANCH   6   7
ATOM      7  CG  GLU A   1      41.987  61.520   9.394  0.00  0.00    +0.116 C 
BRANCH   7   8
ATOM      8  CD  GLU A   1      41.137  61.051  10.579  0.00  0.00    +0.365 C 
ATOM      9  OE2 GLU A   1      41.694  60.743  11.657  0.00  0.00    -0.246 OA
ATOM     10  OE1 GLU A   1      39.897  60.999  10.423  0.00  0.00    -0.246 OA
ENDBRANCH   7   8
ENDBRANCH   6   7
ENDBRANCH   1   6
TORSDOF 5
REMARK  Name = ../refined-set-2016/1ps3/1ps3_pocket.pdb
REMARK  153 active torsions:
REMARK  status: ('A' for Active; 'I' for Inactive)
REMARK    1  A    between atoms: _1  and  _3
REMARK    2  A    between atoms: _14  and  _17
REMARK    3  A    between atoms: _17  and  _18
REMARK    4  A    between atoms: _25  and  _26
REMARK    5  A    between atoms: _33  and  _34
REMARK    6  A    between atoms: _39  and  _41
REMARK    7  A    between atoms: _41  and  _42
REMARK    8  A    between atoms: _44  and  _46
REMARK    9  A    between atoms: _46  and  _47
REMARK   10  A    between atoms: _46  and  _49
REMARK   11  A    between atoms: _49  and  _50
REMARK   12  A    between atoms: _60  and  _62
REMARK   13  A    between atoms: _62  and  _63
REMARK   14  A    between atoms: _62  and  _65
REMARK   15  A    between atoms: _65  and  _66
REMARK   16  A    between atoms: _69  and  _71
REMARK   17  A    between atoms: _71  and  _72
REMARK   18  A    between atoms: _71  and  _74
REMARK   19  A    between atoms: _74  and  _75
REMARK   20  A    between atoms: _80  and  _81
REMARK   21  A    between atoms: _83  and  _85
REMARK   22  A    between atoms: _85  and  _86
REMARK   23  A    between atoms: _85  and  _88
REMARK   24  A    between atoms: _88  and  _89
REMARK   25  A    between atoms: _89  and  _90
REMARK   26  A    between atoms: _93  and  _95
REMARK   27  A    between atoms: _95  and  _96
REMARK   28  A    between atoms: _95  and  _98
REMARK   29  A    between atoms: _98  and  _99
REMARK   30  A    between atoms: _99  and  _100
REMARK   31  A    between atoms: _102  and  _104
REMARK   32  A    between atoms: _104  and  _105
REMARK   33  A    between atoms: _104  and  _107
REMARK   34  A    between atoms: _107  and  _108
REMARK   35  A    between atoms: _111  and  _113
REMARK   36  A    between atoms: _113  and  _114
REMARK   37  A    between atoms: _113  and  _116
REMARK   38  A    between atoms: _116  and  _117
REMARK   39  A    between atoms: _117  and  _118
REMARK   40  A    between atoms: _118  and  ZN_414
REMARK   41  A    between atoms: _121  and  _122
REMARK   42  A    between atoms: _127  and  _129
REMARK   43  A    between atoms: _129  and  _130
REMARK   44  A    between atoms: _129  and  _132
REMARK   45  A    between atoms: _132  and  _133
REMARK   46  A    between atoms: _139  and  _141
REMARK   47  A    between atoms: _141  and  _142
REMARK   48  A    between atoms: _141  and  _144
REMARK   49  A    between atoms: _144  and  _145
REMARK   50  A    between atoms: _145  and  _146
REMARK   51  A    between atoms: _146  and  _147
REMARK   52  A    between atoms: _156  and  _158
REMARK   53  A    between atoms: _158  and  _159
REMARK   54  A    between atoms: _158  and  _161
REMARK   55  A    between atoms: _161  and  _162
REMARK   56  A    between atoms: _167  and  _168
REMARK   57  A    between atoms: _170  and  _172
REMARK   58  A    between atoms: _172  and  _173
REMARK   59  A    between atoms: _172  and  _175
REMARK   60  A    between atoms: _175  and  _176
REMARK   61  A    between atoms: _178  and  _180
REMARK   62  A    between atoms: _180  and  _181
REMARK   63  A    between atoms: _180  and  _183
REMARK   64  A    between atoms: _183  and  _184
REMARK   65  A    between atoms: _189  and  _190
REMARK   66  A    between atoms: _192  and  _194
REMARK   67  A    between atoms: _194  and  _195
REMARK   68  A    between atoms: _194  and  _197
REMARK   69  A    between atoms: _197  and  _198
REMARK   70  A    between atoms: _201  and  _203
REMARK   71  A    between atoms: _203  and  _204
REMARK   72  A    between atoms: _203  and  _206
REMARK   73  A    between atoms: _206  and  _207
REMARK   74  A    between atoms: _210  and  _212
REMARK   75  A    between atoms: _212  and  _213
REMARK   76  A    between atoms: _212  and  _215
REMARK   77  A    between atoms: _215  and  _216
REMARK   78  A    between atoms: _219  and  _221
REMARK   79  A    between atoms: _221  and  _222
REMARK   80  A    between atoms: _221  and  _224
REMARK   81  A    between atoms: _224  and  _225
REMARK   82  A    between atoms: _231  and  _233
REMARK   83  A    between atoms: _233  and  _234
REMARK   84  A    between atoms: _233  and  _236
REMARK   85  A    between atoms: _236  and  _237
REMARK   86  A    between atoms: _242  and  _243
REMARK   87  A    between atoms: _245  and  _247
REMARK   88  A    between atoms: _247  and  _248
REMARK   89  A    between atoms: _247  and  _250
REMARK   90  A    between atoms: _250  and  _251
REMARK   91  A    between atoms: _254  and  _256
REMARK   92  A    between atoms: _256  and  _257
REMARK   93  A    between atoms: _256  and  _259
REMARK   94  A    between atoms: _259  and  _260
REMARK   95  A    between atoms: _270  and  _272
REMARK   96  A    between atoms: _272  and  _273
REMARK   97  A    between atoms: _272  and  _275
REMARK   98  A    between atoms: _275  and  _276
REMARK   99  A    between atoms: _281  and  _283
REMARK  100  A    between atoms: _283  and  _284
REMARK  101  A    between atoms: _283  and  _286
REMARK  102  A    between atoms: _286  and  _287
REMARK  103  A    between atoms: _291  and  ZN_414
REMARK  104  A    between atoms: _292  and  _294
REMARK  105  A    between atoms: _294  and  _295
REMARK  106  A    between atoms: _294  and  _297
REMARK  107  A    between atoms: _297  and  _298
REMARK  108  A    between atoms: _301  and  _303
REMARK  109  A    between atoms: _303  and  _304
REMARK  110  A    between atoms: _306  and  _308
REMARK  111  A    between atoms: _308  and  _309
REMARK  112  A    between atoms: _308  and  _311
REMARK  113  A    between atoms: _311  and  _312
REMARK  114  A    between atoms: _315  and  _317
REMARK  115  A    between atoms: _317  and  _318
REMARK  116  A    between atoms: _317  and  _320
REMARK  117  A    between atoms: _320  and  _321
REMARK  118  A    between atoms: _324  and  _326
REMARK  119  A    between atoms: _326  and  _327
REMARK  120  A    between atoms: _330  and  _332
REMARK  121  A    between atoms: _332  and  _333
REMARK  122  A    between atoms: _336  and  _338
REMARK  123  A    between atoms: _338  and  _339
REMARK  124  A    between atoms: _338  and  _341
REMARK  125  A    between atoms: _341  and  _342
REMARK  126  A    between atoms: _347  and  _348
REMARK  127  A    between atoms: _350  and  _352
REMARK  128  A    between atoms: _352  and  _353
REMARK  129  A    between atoms: _352  and  _355
REMARK  130  A    between atoms: _355  and  _356
REMARK  131  A    between atoms: _359  and  _361
REMARK  132  A    between atoms: _361  and  _362
REMARK  133  A    between atoms: _361  and  _364
REMARK  134  A    between atoms: _364  and  _365
REMARK  135  A    between atoms: _368  and  _370
REMARK  136  A    between atoms: _370  and  _371
REMARK  137  A    between atoms: _370  and  _373
REMARK  138  A    between atoms: _373  and  _374
REMARK  139  A    between atoms: _374  and  _375
REMARK  140  A    between atoms: _378  and  _380
REMARK  141  A    between atoms: _380  and  _381
REMARK  142  A    between atoms: _380  and  _383
REMARK  143  A    between atoms: _383  and  _384
REMARK  144  A    between atoms: _384  and  _385
REMARK  145  A    between atoms: _385  and  _386
REMARK  146  A    between atoms: _395  and  _397
REMARK  147  A    between atoms: _397  and  _398
REMARK  148  A    between atoms: _400  and  _402
REMARK  149  A    between atoms: _402  and  _403
REMARK  150  A    between atoms: _402  and  _405
REMARK  151  A    between atoms: _405  and  _406
REMARK  152  A    between atoms: _409  and  _411
REMARK  153  A    between atoms: _411  and  _412
REMARK                            x       y       z     vdW  Elec       q    Type
REMARK                         _______ _______ _______ _____ _____    ______ ____
ROOT
ATOM      1  CA  MET A   1      40.054  59.583   4.538  0.00  0.00    +0.134 C 
ENDROOT
BRANCH   1   2
ATOM      2  N   MET A   1      41.192  60.476   4.809  0.00  0.00    -0.239 NA
ATOM      3  H   MET A   1      40.989  61.425   5.183  0.00  0.00    +0.142 HD
ENDBRANCH   1   2
BRANCH   1   4
ATOM      4  C   MET A   1      39.522  60.328   3.315  0.00  0.00    +0.224 C 
ATOM      5  O   MET A   1      38.707  61.242   3.437  0.00  0.00    -0.287 OA
ENDBRANCH   1   4
BRANCH   1   6
ATOM      6  CB  MET A   1      39.025  59.637   5.672  0.00  0.00    +0.037 C 
BRANCH   6   7
ATOM      7  CG  MET A   1      37.799  58.755   5.443  0.00  0.00    +0.059 C 
BRANCH   7   8
ATOM      8  SD  MET A   1      36.619  58.839   6.809  0.00  0.00    -0.139 S 
ATOM      9  CE  MET A   1      37.638  58.080   8.151  0.00  0.00    +0.069 C 
ENDBRANCH   7   8
ENDBRANCH   6   7
ENDBRANCH   1   6
TORSDOF 5
REMARK  Name = ../refined-set-2016/1ps3/1ps3_pocket.pdb
REMARK  153 active torsions:
REMARK  status: ('A' for Active; 'I' for Inactive)
REMARK    1  A    between atoms: _1  and  _3
REMARK    2  A    between atoms: _14  and  _17
REMARK    3  A    between atoms: _17  and  _18
REMARK    4  A    between atoms: _25  and  _26
REMARK    5  A    between atoms: _33  and  _34
REMARK    6  A    between atoms: _39  and  _41
REMARK    7  A    between atoms: _41  and  _42
REMARK    8  A    between atoms: _44  and  _46
REMARK    9  A    between atoms: _46  and  _47
REMARK   10  A    between atoms: _46  and  _49
REMARK   11  A    between atoms: _49  and  _50
REMARK   12  A    between atoms: _60  and  _62
REMARK   13  A    between atoms: _62  and  _63
REMARK   14  A    between atoms: _62  and  _65
REMARK   15  A    between atoms: _65  and  _66
REMARK   16  A    between atoms: _69  and  _71
REMARK   17  A    between atoms: _71  and  _72
REMARK   18  A    between atoms: _71  and  _74
REMARK   19  A    between atoms: _74  and  _75
REMARK   20  A    between atoms: _80  and  _81
REMARK   21  A    between atoms: _83  and  _85
REMARK   22  A    between atoms: _85  and  _86
REMARK   23  A    between atoms: _85  and  _88
REMARK   24  A    between atoms: _88  and  _89
REMARK   25  A    between atoms: _89  and  _90
REMARK   26  A    between atoms: _93  and  _95
REMARK   27  A    between atoms: _95  and  _96
REMARK   28  A    between atoms: _95  and  _98
REMARK   29  A    between atoms: _98  and  _99
REMARK   30  A    between atoms: _99  and  _100
REMARK   31  A    between atoms: _102  and  _104
REMARK   32  A    between atoms: _104  and  _105
REMARK   33  A    between atoms: _104  and  _107
REMARK   34  A    between atoms: _107  and  _108
REMARK   35  A    between atoms: _111  and  _113
REMARK   36  A    between atoms: _113  and  _114
REMARK   37  A    between atoms: _113  and  _116
REMARK   38  A    between atoms: _116  and  _117
REMARK   39  A    between atoms: _117  and  _118
REMARK   40  A    between atoms: _118  and  ZN_414
REMARK   41  A    between atoms: _121  and  _122
REMARK   42  A    between atoms: _127  and  _129
REMARK   43  A    between atoms: _129  and  _130
REMARK   44  A    between atoms: _129  and  _132
REMARK   45  A    between atoms: _132  and  _133
REMARK   46  A    between atoms: _139  and  _141
REMARK   47  A    between atoms: _141  and  _142
REMARK   48  A    between atoms: _141  and  _144
REMARK   49  A    between atoms: _144  and  _145
REMARK   50  A    between atoms: _145  and  _146
REMARK   51  A    between atoms: _146  and  _147
REMARK   52  A    between atoms: _156  and  _158
REMARK   53  A    between atoms: _158  and  _159
REMARK   54  A    between atoms: _158  and  _161
REMARK   55  A    between atoms: _161  and  _162
REMARK   56  A    between atoms: _167  and  _168
REMARK   57  A    between atoms: _170  and  _172
REMARK   58  A    between atoms: _172  and  _173
REMARK   59  A    between atoms: _172  and  _175
REMARK   60  A    between atoms: _175  and  _176
REMARK   61  A    between atoms: _178  and  _180
REMARK   62  A    between atoms: _180  and  _181
REMARK   63  A    between atoms: _180  and  _183
REMARK   64  A    between atoms: _183  and  _184
REMARK   65  A    between atoms: _189  and  _190
REMARK   66  A    between atoms: _192  and  _194
REMARK   67  A    between atoms: _194  and  _195
REMARK   68  A    between atoms: _194  and  _197
REMARK   69  A    between atoms: _197  and  _198
REMARK   70  A    between atoms: _201  and  _203
REMARK   71  A    between atoms: _203  and  _204
REMARK   72  A    between atoms: _203  and  _206
REMARK   73  A    between atoms: _206  and  _207
REMARK   74  A    between atoms: _210  and  _212
REMARK   75  A    between atoms: _212  and  _213
REMARK   76  A    between atoms: _212  and  _215
REMARK   77  A    between atoms: _215  and  _216
REMARK   78  A    between atoms: _219  and  _221
REMARK   79  A    between atoms: _221  and  _222
REMARK   80  A    between atoms: _221  and  _224
REMARK   81  A    between atoms: _224  and  _225
REMARK   82  A    between atoms: _231  and  _233
REMARK   83  A    between atoms: _233  and  _234
REMARK   84  A    between atoms: _233  and  _236
REMARK   85  A    between atoms: _236  and  _237
REMARK   86  A    between atoms: _242  and  _243
REMARK   87  A    between atoms: _245  and  _247
REMARK   88  A    between atoms: _247  and  _248
REMARK   89  A    between atoms: _247  and  _250
REMARK   90  A    between atoms: _250  and  _251
REMARK   91  A    between atoms: _254  and  _256
REMARK   92  A    between atoms: _256  and  _257
REMARK   93  A    between atoms: _256  and  _259
REMARK   94  A    between atoms: _259  and  _260
REMARK   95  A    between atoms: _270  and  _272
REMARK   96  A    between atoms: _272  and  _273
REMARK   97  A    between atoms: _272  and  _275
REMARK   98  A    between atoms: _275  and  _276
REMARK   99  A    between atoms: _281  and  _283
REMARK  100  A    between atoms: _283  and  _284
REMARK  101  A    between atoms: _283  and  _286
REMARK  102  A    between atoms: _286  and  _287
REMARK  103  A    between atoms: _291  and  ZN_414
REMARK  104  A    between atoms: _292  and  _294
REMARK  105  A    between atoms: _294  and  _295
REMARK  106  A    between atoms: _294  and  _297
REMARK  107  A    between atoms: _297  and  _298
REMARK  108  A    between atoms: _301  and  _303
REMARK  109  A    between atoms: _303  and  _304
REMARK  110  A    between atoms: _306  and  _308
REMARK  111  A    between atoms: _308  and  _309
REMARK  112  A    between atoms: _308  and  _311
REMARK  113  A    between atoms: _311  and  _312
REMARK  114  A    between atoms: _315  and  _317
REMARK  115  A    between atoms: _317  and  _318
REMARK  116  A    between atoms: _317  and  _320
REMARK  117  A    between atoms: _320  and  _321
REMARK  118  A    between atoms: _324  and  _326
REMARK  119  A    between atoms: _326  and  _327
REMARK  120  A    between atoms: _330  and  _332
REMARK  121  A    between atoms: _332  and  _333
REMARK  122  A    between atoms: _336  and  _338
REMARK  123  A    between atoms: _338  and  _339
REMARK  124  A    between atoms: _338  and  _341
REMARK  125  A    between atoms: _341  and  _342
REMARK  126  A    between atoms: _347  and  _348
REMARK  127  A    between atoms: _350  and  _352
REMARK  128  A    between atoms: _352  and  _353
REMARK  129  A    between atoms: _352  and  _355
REMARK  130  A    between atoms: _355  and  _356
REMARK  131  A    between atoms: _359  and  _361
REMARK  132  A    between atoms: _361  and  _362
REMARK  133  A    between atoms: _361  and  _364
REMARK  134  A    between atoms: _364  and  _365
REMARK  135  A    between atoms: _368  and  _370
REMARK  136  A    between atoms: _370  and  _371
REMARK  137  A    between atoms: _370  and  _373
REMARK  138  A    between atoms: _373  and  _374
REMARK  139  A    between atoms: _374  and  _375
REMARK  140  A    between atoms: _378  and  _380
REMARK  141  A    between atoms: _380  and  _381
REMARK  142  A    between atoms: _380  and  _383
REMARK  143  A    between atoms: _383  and  _384
REMARK  144  A    between atoms: _384  and  _385
REMARK  145  A    between atoms: _385  and  _386
REMARK  146  A    between atoms: _395  and  _397
REMARK  147  A    between atoms: _397  and  _398
REMARK  148  A    between atoms: _400  and  _402
REMARK  149  A    between atoms: _402  and  _403
REMARK  150  A    between atoms: _402  and  _405
REMARK  151  A    between atoms: _405  and  _406
REMARK  152  A    between atoms: _409  and  _411
REMARK  153  A    between atoms: _411  and  _412
REMARK                            x       y       z     vdW  Elec       q    Type
REMARK                         _______ _______ _______ _____ _____    ______ ____
ROOT
ATOM      1  NE  ARG A   1      28.814  61.493   5.866  0.00  0.00    -0.265 N 
ATOM      2  CZ  ARG A   1      27.874  62.157   6.537  0.00  0.00    +0.342 C 
ATOM      3  NH2 ARG A   1      28.224  62.967   7.532  0.00  0.00    -0.292 N 
ATOM      4 HH21 ARG A   1      27.495  63.488   8.059  0.00  0.00    +0.255 HD
ATOM      5 HH22 ARG A   1      29.227  63.079   7.783  0.00  0.00    +0.255 HD
ATOM      6  NH1 ARG A   1      26.595  62.046   6.197  0.00  0.00    -0.292 N 
ATOM      7 HH11 ARG A   1      25.869  62.569   6.727  0.00  0.00    +0.255 HD
ATOM      8 HH12 ARG A   1      26.320  61.437   5.401  0.00  0.00    +0.255 HD
ATOM      9  HE  ARG A   1      29.798  61.609   6.181  0.00  0.00    +0.259 HD
ENDROOT
BRANCH   1  10
ATOM     10  CD  ARG A   1      28.572  60.612   4.719  0.00  0.00    +0.174 C 
BRANCH  10  11
ATOM     11  CG  ARG A   1      28.122  59.204   5.075  0.00  0.00    +0.045 C 
BRANCH  11  12
ATOM     12  CB  ARG A   1      28.029  58.341   3.813  0.00  0.00    +0.029 C 
BRANCH  12  13
ATOM     13  CA  ARG A   1      27.414  56.957   4.051  0.00  0.00    +0.133 C 
BRANCH  13  14
ATOM     14  N   ARG A   1      28.351  56.110   4.766  0.00  0.00    -0.239 NA
ATOM     15  H   ARG A   1      29.373  56.295   4.708  0.00  0.00    +0.142 HD
ENDBRANCH  13  14
BRANCH  13  16
ATOM     16  C   ARG A   1      26.858  56.402   2.748  0.00  0.00    +0.224 C 
ATOM     17  O   ARG A   1      27.419  56.613   1.674  0.00  0.00    -0.287 OA
ENDBRANCH  13  16
ENDBRANCH  12  13
ENDBRANCH  11  12
ENDBRANCH  10  11
ENDBRANCH   1  10
TORSDOF 6
REMARK  Name = ../refined-set-2016/1ps3/1ps3_pocket.pdb
REMARK  153 active torsions:
REMARK  status: ('A' for Active; 'I' for Inactive)
REMARK    1  A    between atoms: _1  and  _3
REMARK    2  A    between atoms: _14  and  _17
REMARK    3  A    between atoms: _17  and  _18
REMARK    4  A    between atoms: _25  and  _26
REMARK    5  A    between atoms: _33  and  _34
REMARK    6  A    between atoms: _39  and  _41
REMARK    7  A    between atoms: _41  and  _42
REMARK    8  A    between atoms: _44  and  _46
REMARK    9  A    between atoms: _46  and  _47
REMARK   10  A    between atoms: _46  and  _49
REMARK   11  A    between atoms: _49  and  _50
REMARK   12  A    between atoms: _60  and  _62
REMARK   13  A    between atoms: _62  and  _63
REMARK   14  A    between atoms: _62  and  _65
REMARK   15  A    between atoms: _65  and  _66
REMARK   16  A    between atoms: _69  and  _71
REMARK   17  A    between atoms: _71  and  _72
REMARK   18  A    between atoms: _71  and  _74
REMARK   19  A    between atoms: _74  and  _75
REMARK   20  A    between atoms: _80  and  _81
REMARK   21  A    between atoms: _83  and  _85
REMARK   22  A    between atoms: _85  and  _86
REMARK   23  A    between atoms: _85  and  _88
REMARK   24  A    between atoms: _88  and  _89
REMARK   25  A    between atoms: _89  and  _90
REMARK   26  A    between atoms: _93  and  _95
REMARK   27  A    between atoms: _95  and  _96
REMARK   28  A    between atoms: _95  and  _98
REMARK   29  A    between atoms: _98  and  _99
REMARK   30  A    between atoms: _99  and  _100
REMARK   31  A    between atoms: _102  and  _104
REMARK   32  A    between atoms: _104  and  _105
REMARK   33  A    between atoms: _104  and  _107
REMARK   34  A    between atoms: _107  and  _108
REMARK   35  A    between atoms: _111  and  _113
REMARK   36  A    between atoms: _113  and  _114
REMARK   37  A    between atoms: _113  and  _116
REMARK   38  A    between atoms: _116  and  _117
REMARK   39  A    between atoms: _117  and  _118
REMARK   40  A    between atoms: _118  and  ZN_414
REMARK   41  A    between atoms: _121  and  _122
REMARK   42  A    between atoms: _127  and  _129
REMARK   43  A    between atoms: _129  and  _130
REMARK   44  A    between atoms: _129  and  _132
REMARK   45  A    between atoms: _132  and  _133
REMARK   46  A    between atoms: _139  and  _141
REMARK   47  A    between atoms: _141  and  _142
REMARK   48  A    between atoms: _141  and  _144
REMARK   49  A    between atoms: _144  and  _145
REMARK   50  A    between atoms: _145  and  _146
REMARK   51  A    between atoms: _146  and  _147
REMARK   52  A    between atoms: _156  and  _158
REMARK   53  A    between atoms: _158  and  _159
REMARK   54  A    between atoms: _158  and  _161
REMARK   55  A    between atoms: _161  and  _162
REMARK   56  A    between atoms: _167  and  _168
REMARK   57  A    between atoms: _170  and  _172
REMARK   58  A    between atoms: _172  and  _173
REMARK   59  A    between atoms: _172  and  _175
REMARK   60  A    between atoms: _175  and  _176
REMARK   61  A    between atoms: _178  and  _180
REMARK   62  A    between atoms: _180  and  _181
REMARK   63  A    between atoms: _180  and  _183
REMARK   64  A    between atoms: _183  and  _184
REMARK   65  A    between atoms: _189  and  _190
REMARK   66  A    between atoms: _192  and  _194
REMARK   67  A    between atoms: _194  and  _195
REMARK   68  A    between atoms: _194  and  _197
REMARK   69  A    between atoms: _197  and  _198
REMARK   70  A    between atoms: _201  and  _203
REMARK   71  A    between atoms: _203  and  _204
REMARK   72  A    between atoms: _203  and  _206
REMARK   73  A    between atoms: _206  and  _207
REMARK   74  A    between atoms: _210  and  _212
REMARK   75  A    between atoms: _212  and  _213
REMARK   76  A    between atoms: _212  and  _215
REMARK   77  A    between atoms: _215  and  _216
REMARK   78  A    between atoms: _219  and  _221
REMARK   79  A    between atoms: _221  and  _222
REMARK   80  A    between atoms: _221  and  _224
REMARK   81  A    between atoms: _224  and  _225
REMARK   82  A    between atoms: _231  and  _233
REMARK   83  A    between atoms: _233  and  _234
REMARK   84  A    between atoms: _233  and  _236
REMARK   85  A    between atoms: _236  and  _237
REMARK   86  A    between atoms: _242  and  _243
REMARK   87  A    between atoms: _245  and  _247
REMARK   88  A    between atoms: _247  and  _248
REMARK   89  A    between atoms: _247  and  _250
REMARK   90  A    between atoms: _250  and  _251
REMARK   91  A    between atoms: _254  and  _256
REMARK   92  A    between atoms: _256  and  _257
REMARK   93  A    between atoms: _256  and  _259
REMARK   94  A    between atoms: _259  and  _260
REMARK   95  A    between atoms: _270  and  _272
REMARK   96  A    between atoms: _272  and  _273
REMARK   97  A    between atoms: _272  and  _275
REMARK   98  A    between atoms: _275  and  _276
REMARK   99  A    between atoms: _281  and  _283
REMARK  100  A    between atoms: _283  and  _284
REMARK  101  A    between atoms: _283  and  _286
REMARK  102  A    between atoms: _286  and  _287
REMARK  103  A    between atoms: _291  and  ZN_414
REMARK  104  A    between atoms: _292  and  _294
REMARK  105  A    between atoms: _294  and  _295
REMARK  106  A    between atoms: _294  and  _297
REMARK  107  A    between atoms: _297  and  _298
REMARK  108  A    between atoms: _301  and  _303
REMARK  109  A    between atoms: _303  and  _304
REMARK  110  A    between atoms: _306  and  _308
REMARK  111  A    between atoms: _308  and  _309
REMARK  112  A    between atoms: _308  and  _311
REMARK  113  A    between atoms: _311  and  _312
REMARK  114  A    between atoms: _315  and  _317
REMARK  115  A    between atoms: _317  and  _318
REMARK  116  A    between atoms: _317  and  _320
REMARK  117  A    between atoms: _320  and  _321
REMARK  118  A    between atoms: _324  and  _326
REMARK  119  A    between atoms: _326  and  _327
REMARK  120  A    between atoms: _330  and  _332
REMARK  121  A    between atoms: _332  and  _333
REMARK  122  A    between atoms: _336  and  _338
REMARK  123  A    between atoms: _338  and  _339
REMARK  124  A    between atoms: _338  and  _341
REMARK  125  A    between atoms: _341  and  _342
REMARK  126  A    between atoms: _347  and  _348
REMARK  127  A    between atoms: _350  and  _352
REMARK  128  A    between atoms: _352  and  _353
REMARK  129  A    between atoms: _352  and  _355
REMARK  130  A    between atoms: _355  and  _356
REMARK  131  A    between atoms: _359  and  _361
REMARK  132  A    between atoms: _361  and  _362
REMARK  133  A    between atoms: _361  and  _364
REMARK  134  A    between atoms: _364  and  _365
REMARK  135  A    between atoms: _368  and  _370
REMARK  136  A    between atoms: _370  and  _371
REMARK  137  A    between atoms: _370  and  _373
REMARK  138  A    between atoms: _373  and  _374
REMARK  139  A    between atoms: _374  and  _375
REMARK  140  A    between atoms: _378  and  _380
REMARK  141  A    between atoms: _380  and  _381
REMARK  142  A    between atoms: _380  and  _383
REMARK  143  A    between atoms: _383  and  _384
REMARK  144  A    between atoms: _384  and  _385
REMARK  145  A    between atoms: _385  and  _386
REMARK  146  A    between atoms: _395  and  _397
REMARK  147  A    between atoms: _397  and  _398
REMARK  148  A    between atoms: _400  and  _402
REMARK  149  A    between atoms: _402  and  _403
REMARK  150  A    between atoms: _402  and  _405
REMARK  151  A    between atoms: _405  and  _406
REMARK  152  A    between atoms: _409  and  _411
REMARK  153  A    between atoms: _411  and  _412
REMARK                            x       y       z     vdW  Elec       q    Type
REMARK                         _______ _______ _______ _____ _____    ______ ____
ROOT
ATOM      1  C   SER A   2      26.259  57.489  12.083  0.00  0.00    +0.243 C 
ATOM      2  O   SER A   2      25.926  56.366  12.475  0.00  0.00    -0.273 OA
ATOM      3  N   TYR A   3      27.494  57.969  12.216  0.00  0.00    -0.297 N 
ATOM      4  H   TYR A   3      27.724  58.907  11.829  0.00  0.00    +0.150 HD
ENDROOT
BRANCH   3   5
ATOM      5  CA  TYR A   3      28.527  57.201  12.895  0.00  0.00    +0.153 C 
BRANCH   5   6
ATOM      6  C   TYR A   3      28.677  57.685  14.336  0.00  0.00    +0.241 C 
ATOM      7  O   TYR A   3      29.528  57.182  15.074  0.00  0.00    -0.273 OA
ATOM      8  N   ASP A   4      27.864  58.660  14.744  0.00  0.00    -0.298 N 
ATOM      9  H   ASP A   4      27.166  59.071  14.092  0.00  0.00    +0.150 HD
BRANCH   8  10
ATOM     10  CA  ASP A   4      27.966  59.144  16.118  0.00  0.00    +0.148 C 
BRANCH  10  11
ATOM     11  C   ASP A   4      27.390  58.090  17.054  0.00  0.00    +0.227 C 
ATOM     12  O   ASP A   4      26.804  57.102  16.604  0.00  0.00    -0.286 OA
ENDBRANCH  10  11
BRANCH  10  13
ATOM     13  CB  ASP A   4      27.283  60.516  16.314  0.00  0.00    +0.142 C 
BRANCH  13  14
ATOM     14  CG  ASP A   4      25.793  60.510  16.000  0.00  0.00    +0.367 C 
ATOM     15  OD2 ASP A   4      25.175  59.429  15.940  0.00  0.00    -0.246 OA
ATOM     16  OD1 ASP A   4      25.231  61.617  15.834  0.00  0.00    -0.246 OA
ENDBRANCH  13  14
ENDBRANCH  10  13
ENDBRANCH   8  10
ENDBRANCH   5   6
BRANCH   5  17
ATOM     17  CB  TYR A   3      29.873  57.319  12.159  0.00  0.00    +0.055 C 
BRANCH  17  18
ATOM     18  CG  TYR A   3      30.340  58.741  11.950  0.00  0.00    -0.020 A 
ATOM     19  CD2 TYR A   3      30.820  59.509  13.012  0.00  0.00    -0.001 A 
ATOM     20  CE2 TYR A   3      31.223  60.830  12.819  0.00  0.00    +0.036 A 
ATOM     21  CZ  TYR A   3      31.142  61.391  11.551  0.00  0.00    +0.134 A 
ATOM     22  CE1 TYR A   3      30.669  60.649  10.481  0.00  0.00    +0.036 A 
ATOM     23  CD1 TYR A   3      30.273  59.328  10.686  0.00  0.00    -0.001 A 
BRANCH  21  24
ATOM     24  OH  TYR A   3      31.522  62.695  11.349  0.00  0.00    -0.506 OA
ATOM     25  HH  TYR A   3      31.834  63.083  12.205  0.00  0.00    +0.292 HD
ENDBRANCH  21  24
ENDBRANCH  17  18
ENDBRANCH   5  17
ENDBRANCH   3   5
BRANCH   1  26
ATOM     26  CA  SER A   2      25.252  58.402  11.402  0.00  0.00    +0.178 C 
BRANCH  26  28
ATOM     27  C   TYR A   1      23.303  58.042  10.017  0.00  0.00    +0.239 C 
ATOM     28  N   SER A   2      24.007  57.717  11.094  0.00  0.00    -0.295 N 
ATOM     29  H   SER A   2      23.664  56.964  11.725  0.00  0.00    +0.150 HD
ATOM     30  O   TYR A   1      23.680  58.889   9.209  0.00  0.00    -0.274 OA
BRANCH  27  31
ATOM     31  CA  TYR A   1      21.980  57.318   9.803  0.00  0.00    +0.149 C 
BRANCH  31  32
ATOM     32  N   TYR A   1      21.860  55.951  10.296  0.00  0.00    -0.238 NA
ATOM     33  H   TYR A   1      21.115  55.754  10.994  0.00  0.00    +0.142 HD
ENDBRANCH  31  32
BRANCH  31  34
ATOM     34  CB  TYR A   1      20.846  58.142  10.418  0.00  0.00    +0.053 C 
BRANCH  34  35
ATOM     35  CG  TYR A   1      20.934  59.647  10.239  0.00  0.00    -0.020 A 
ATOM     36  CD2 TYR A   1      21.333  60.463  11.300  0.00  0.00    -0.001 A 
ATOM     37  CE2 TYR A   1      21.358  61.844  11.180  0.00  0.00    +0.036 A 
ATOM     38  CZ  TYR A   1      20.982  62.435   9.993  0.00  0.00    +0.134 A 
ATOM     39  CE1 TYR A   1      20.587  61.653   8.910  0.00  0.00    +0.036 A 
ATOM     40  CD1 TYR A   1      20.568  60.257   9.042  0.00  0.00    -0.001 A 
BRANCH  38  41
ATOM     41  OH  TYR A   1      20.969  63.807   9.920  0.00  0.00    -0.506 OA
ATOM     42  HH  TYR A   1      20.681  64.085   9.015  0.00  0.00    +0.292 HD
ENDBRANCH  38  41
ENDBRANCH  34  35
ENDBRANCH  31  34
ENDBRANCH  27  31
ENDBRANCH  26  28
BRANCH  26  43
ATOM     43  CB  SER A   2      24.939  59.595  12.316  0.00  0.00    +0.166 C 
BRANCH  43  44
ATOM     44  OG  SER A   2      26.109  60.278  12.724  0.00  0.00    -0.380 OA
ATOM     45  H   SER A   2      26.586  60.618  11.926  0.00  0.00    +0.211 HD
ENDBRANCH  43  44
ENDBRANCH  26  43
ENDBRANCH   1  26
TORSDOF 18
REMARK  Name = ../refined-set-2016/1ps3/1ps3_pocket.pdb
REMARK  153 active torsions:
REMARK  status: ('A' for Active; 'I' for Inactive)
REMARK    1  A    between atoms: _1  and  _3
REMARK    2  A    between atoms: _14  and  _17
REMARK    3  A    between atoms: _17  and  _18
REMARK    4  A    between atoms: _25  and  _26
REMARK    5  A    between atoms: _33  and  _34
REMARK    6  A    between atoms: _39  and  _41
REMARK    7  A    between atoms: _41  and  _42
REMARK    8  A    between atoms: _44  and  _46
REMARK    9  A    between atoms: _46  and  _47
REMARK   10  A    between atoms: _46  and  _49
REMARK   11  A    between atoms: _49  and  _50
REMARK   12  A    between atoms: _60  and  _62
REMARK   13  A    between atoms: _62  and  _63
REMARK   14  A    between atoms: _62  and  _65
REMARK   15  A    between atoms: _65  and  _66
REMARK   16  A    between atoms: _69  and  _71
REMARK   17  A    between atoms: _71  and  _72
REMARK   18  A    between atoms: _71  and  _74
REMARK   19  A    between atoms: _74  and  _75
REMARK   20  A    between atoms: _80  and  _81
REMARK   21  A    between atoms: _83  and  _85
REMARK   22  A    between atoms: _85  and  _86
REMARK   23  A    between atoms: _85  and  _88
REMARK   24  A    between atoms: _88  and  _89
REMARK   25  A    between atoms: _89  and  _90
REMARK   26  A    between atoms: _93  and  _95
REMARK   27  A    between atoms: _95  and  _96
REMARK   28  A    between atoms: _95  and  _98
REMARK   29  A    between atoms: _98  and  _99
REMARK   30  A    between atoms: _99  and  _100
REMARK   31  A    between atoms: _102  and  _104
REMARK   32  A    between atoms: _104  and  _105
REMARK   33  A    between atoms: _104  and  _107
REMARK   34  A    between atoms: _107  and  _108
REMARK   35  A    between atoms: _111  and  _113
REMARK   36  A    between atoms: _113  and  _114
REMARK   37  A    between atoms: _113  and  _116
REMARK   38  A    between atoms: _116  and  _117
REMARK   39  A    between atoms: _117  and  _118
REMARK   40  A    between atoms: _118  and  ZN_414
REMARK   41  A    between atoms: _121  and  _122
REMARK   42  A    between atoms: _127  and  _129
REMARK   43  A    between atoms: _129  and  _130
REMARK   44  A    between atoms: _129  and  _132
REMARK   45  A    between atoms: _132  and  _133
REMARK   46  A    between atoms: _139  and  _141
REMARK   47  A    between atoms: _141  and  _142
REMARK   48  A    between atoms: _141  and  _144
REMARK   49  A    between atoms: _144  and  _145
REMARK   50  A    between atoms: _145  and  _146
REMARK   51  A    between atoms: _146  and  _147
REMARK   52  A    between atoms: _156  and  _158
REMARK   53  A    between atoms: _158  and  _159
REMARK   54  A    between atoms: _158  and  _161
REMARK   55  A    between atoms: _161  and  _162
REMARK   56  A    between atoms: _167  and  _168
REMARK   57  A    between atoms: _170  and  _172
REMARK   58  A    between atoms: _172  and  _173
REMARK   59  A    between atoms: _172  and  _175
REMARK   60  A    between atoms: _175  and  _176
REMARK   61  A    between atoms: _178  and  _180
REMARK   62  A    between atoms: _180  and  _181
REMARK   63  A    between atoms: _180  and  _183
REMARK   64  A    between atoms: _183  and  _184
REMARK   65  A    between atoms: _189  and  _190
REMARK   66  A    between atoms: _192  and  _194
REMARK   67  A    between atoms: _194  and  _195
REMARK   68  A    between atoms: _194  and  _197
REMARK   69  A    between atoms: _197  and  _198
REMARK   70  A    between atoms: _201  and  _203
REMARK   71  A    between atoms: _203  and  _204
REMARK   72  A    between atoms: _203  and  _206
REMARK   73  A    between atoms: _206  and  _207
REMARK   74  A    between atoms: _210  and  _212
REMARK   75  A    between atoms: _212  and  _213
REMARK   76  A    between atoms: _212  and  _215
REMARK   77  A    between atoms: _215  and  _216
REMARK   78  A    between atoms: _219  and  _221
REMARK   79  A    between atoms: _221  and  _222
REMARK   80  A    between atoms: _221  and  _224
REMARK   81  A    between atoms: _224  and  _225
REMARK   82  A    between atoms: _231  and  _233
REMARK   83  A    between atoms: _233  and  _234
REMARK   84  A    between atoms: _233  and  _236
REMARK   85  A    between atoms: _236  and  _237
REMARK   86  A    between atoms: _242  and  _243
REMARK   87  A    between atoms: _245  and  _247
REMARK   88  A    between atoms: _247  and  _248
REMARK   89  A    between atoms: _247  and  _250
REMARK   90  A    between atoms: _250  and  _251
REMARK   91  A    between atoms: _254  and  _256
REMARK   92  A    between atoms: _256  and  _257
REMARK   93  A    between atoms: _256  and  _259
REMARK   94  A    between atoms: _259  and  _260
REMARK   95  A    between atoms: _270  and  _272
REMARK   96  A    between atoms: _272  and  _273
REMARK   97  A    between atoms: _272  and  _275
REMARK   98  A    between atoms: _275  and  _276
REMARK   99  A    between atoms: _281  and  _283
REMARK  100  A    between atoms: _283  and  _284
REMARK  101  A    between atoms: _283  and  _286
REMARK  102  A    between atoms: _286  and  _287
REMARK  103  A    between atoms: _291  and  ZN_414
REMARK  104  A    between atoms: _292  and  _294
REMARK  105  A    between atoms: _294  and  _295
REMARK  106  A    between atoms: _294  and  _297
REMARK  107  A    between atoms: _297  and  _298
REMARK  108  A    between atoms: _301  and  _303
REMARK  109  A    between atoms: _303  and  _304
REMARK  110  A    between atoms: _306  and  _308
REMARK  111  A    between atoms: _308  and  _309
REMARK  112  A    between atoms: _308  and  _311
REMARK  113  A    between atoms: _311  and  _312
REMARK  114  A    between atoms: _315  and  _317
REMARK  115  A    between atoms: _317  and  _318
REMARK  116  A    between atoms: _317  and  _320
REMARK  117  A    between atoms: _320  and  _321
REMARK  118  A    between atoms: _324  and  _326
REMARK  119  A    between atoms: _326  and  _327
REMARK  120  A    between atoms: _330  and  _332
REMARK  121  A    between atoms: _332  and  _333
REMARK  122  A    between atoms: _336  and  _338
REMARK  123  A    between atoms: _338  and  _339
REMARK  124  A    between atoms: _338  and  _341
REMARK  125  A    between atoms: _341  and  _342
REMARK  126  A    between atoms: _347  and  _348
REMARK  127  A    between atoms: _350  and  _352
REMARK  128  A    between atoms: _352  and  _353
REMARK  129  A    between atoms: _352  and  _355
REMARK  130  A    between atoms: _355  and  _356
REMARK  131  A    between atoms: _359  and  _361
REMARK  132  A    between atoms: _361  and  _362
REMARK  133  A    between atoms: _361  and  _364
REMARK  134  A    between atoms: _364  and  _365
REMARK  135  A    between atoms: _368  and  _370
REMARK  136  A    between atoms: _370  and  _371
REMARK  137  A    between atoms: _370  and  _373
REMARK  138  A    between atoms: _373  and  _374
REMARK  139  A    between atoms: _374  and  _375
REMARK  140  A    between atoms: _378  and  _380
REMARK  141  A    between atoms: _380  and  _381
REMARK  142  A    between atoms: _380  and  _383
REMARK  143  A    between atoms: _383  and  _384
REMARK  144  A    between atoms: _384  and  _385
REMARK  145  A    between atoms: _385  and  _386
REMARK  146  A    between atoms: _395  and  _397
REMARK  147  A    between atoms: _397  and  _398
REMARK  148  A    between atoms: _400  and  _402
REMARK  149  A    between atoms: _402  and  _403
REMARK  150  A    between atoms: _402  and  _405
REMARK  151  A    between atoms: _405  and  _406
REMARK  152  A    between atoms: _409  and  _411
REMARK  153  A    between atoms: _411  and  _412
REMARK                            x       y       z     vdW  Elec       q    Type
REMARK                         _______ _______ _______ _____ _____    ______ ____
ROOT
ATOM      1  CA  ASP A   2      33.992  64.326  15.639  0.00  0.00    +0.160 C 
ENDROOT
BRANCH   1   4
ATOM      2  C   ASP A   1      33.343  62.191  16.619  0.00  0.00    +0.239 C 
ATOM      3  O   ASP A   1      34.517  61.859  16.772  0.00  0.00    -0.274 OA
ATOM      4  N   ASP A   2      32.993  63.365  16.104  0.00  0.00    -0.297 N 
ATOM      5  H   ASP A   2      31.984  63.606  16.030  0.00  0.00    +0.150 HD
BRANCH   2   6
ATOM      6  CA  ASP A   1      32.212  61.250  17.052  0.00  0.00    +0.156 C 
BRANCH   6   7
ATOM      7  N   ASP A   1      32.837  60.171  17.796  0.00  0.00    -0.238 NA
ATOM      8  H   ASP A   1      33.836  60.270  18.069  0.00  0.00    +0.142 HD
ENDBRANCH   6   7
BRANCH   6   9
ATOM      9  CB  ASP A   1      31.220  61.990  17.954  0.00  0.00    +0.140 C 
BRANCH   9  10
ATOM     10  CG  ASP A   1      30.110  62.671  17.175  0.00  0.00    +0.367 C 
ATOM     11  OD2 ASP A   1      29.009  62.844  17.744  0.00  0.00    -0.246 OA
ATOM     12  OD1 ASP A   1      30.336  63.053  16.007  0.00  0.00    -0.246 OA
ENDBRANCH   9  10
ENDBRANCH   6   9
ENDBRANCH   2   6
ENDBRANCH   1   4
BRANCH   1  13
ATOM     13  C   ASP A   2      34.915  64.860  16.727  0.00  0.00    +0.241 C 
ATOM     14  O   ASP A   2      34.464  65.379  17.755  0.00  0.00    -0.273 OA
ATOM     15  N   PHE A   3      36.215  64.729  16.481  0.00  0.00    -0.298 N 
ATOM     16  H   PHE A   3      36.510  64.283  15.589  0.00  0.00    +0.150 HD
BRANCH  15  17
ATOM     17  CA  PHE A   3      37.242  65.183  17.405  0.00  0.00    +0.141 C 
BRANCH  17  18
ATOM     18  C   PHE A   3      36.949  64.808  18.861  0.00  0.00    +0.227 C 
ATOM     19  O   PHE A   3      37.111  65.618  19.773  0.00  0.00    -0.286 OA
ENDBRANCH  17  18
BRANCH  17  20
ATOM     20  CB  PHE A   3      37.440  66.696  17.264  0.00  0.00    +0.054 C 
BRANCH  20  21
ATOM     21  CG  PHE A   3      37.956  67.113  15.911  0.00  0.00    -0.020 A 
ATOM     22  CD2 PHE A   3      39.325  67.143  15.656  0.00  0.00    -0.004 A 
ATOM     23  CE2 PHE A   3      39.812  67.506  14.405  0.00  0.00    -0.000 A 
ATOM     24  CZ  PHE A   3      38.926  67.847  13.393  0.00  0.00    -0.000 A 
ATOM     25  CE1 PHE A   3      37.556  67.823  13.633  0.00  0.00    -0.000 A 
ATOM     26  CD1 PHE A   3      37.078  67.456  14.887  0.00  0.00    -0.004 A 
ENDBRANCH  20  21
ENDBRANCH  17  20
ENDBRANCH  15  17
ENDBRANCH   1  13
BRANCH   1  27
ATOM     27  CB  ASP A   2      33.299  65.496  14.925  0.00  0.00    +0.143 C 
BRANCH  27  28
ATOM     28  CG  ASP A   2      32.746  65.101  13.562  0.00  0.00    +0.367 C 
ATOM     29  OD2 ASP A   2      32.619  63.889  13.300  0.00  0.00    -0.246 OA
ATOM     30  OD1 ASP A   2      32.441  66.000  12.750  0.00  0.00    -0.246 OA
ENDBRANCH  27  28
ENDBRANCH   1  27
TORSDOF 12
REMARK  Name = ../refined-set-2016/1ps3/1ps3_pocket.pdb
REMARK  153 active torsions:
REMARK  status: ('A' for Active; 'I' for Inactive)
REMARK    1  A    between atoms: _1  and  _3
REMARK    2  A    between atoms: _14  and  _17
REMARK    3  A    between atoms: _17  and  _18
REMARK    4  A    between atoms: _25  and  _26
REMARK    5  A    between atoms: _33  and  _34
REMARK    6  A    between atoms: _39  and  _41
REMARK    7  A    between atoms: _41  and  _42
REMARK    8  A    between atoms: _44  and  _46
REMARK    9  A    between atoms: _46  and  _47
REMARK   10  A    between atoms: _46  and  _49
REMARK   11  A    between atoms: _49  and  _50
REMARK   12  A    between atoms: _60  and  _62
REMARK   13  A    between atoms: _62  and  _63
REMARK   14  A    between atoms: _62  and  _65
REMARK   15  A    between atoms: _65  and  _66
REMARK   16  A    between atoms: _69  and  _71
REMARK   17  A    between atoms: _71  and  _72
REMARK   18  A    between atoms: _71  and  _74
REMARK   19  A    between atoms: _74  and  _75
REMARK   20  A    between atoms: _80  and  _81
REMARK   21  A    between atoms: _83  and  _85
REMARK   22  A    between atoms: _85  and  _86
REMARK   23  A    between atoms: _85  and  _88
REMARK   24  A    between atoms: _88  and  _89
REMARK   25  A    between atoms: _89  and  _90
REMARK   26  A    between atoms: _93  and  _95
REMARK   27  A    between atoms: _95  and  _96
REMARK   28  A    between atoms: _95  and  _98
REMARK   29  A    between atoms: _98  and  _99
REMARK   30  A    between atoms: _99  and  _100
REMARK   31  A    between atoms: _102  and  _104
REMARK   32  A    between atoms: _104  and  _105
REMARK   33  A    between atoms: _104  and  _107
REMARK   34  A    between atoms: _107  and  _108
REMARK   35  A    between atoms: _111  and  _113
REMARK   36  A    between atoms: _113  and  _114
REMARK   37  A    between atoms: _113  and  _116
REMARK   38  A    between atoms: _116  and  _117
REMARK   39  A    between atoms: _117  and  _118
REMARK   40  A    between atoms: _118  and  ZN_414
REMARK   41  A    between atoms: _121  and  _122
REMARK   42  A    between atoms: _127  and  _129
REMARK   43  A    between atoms: _129  and  _130
REMARK   44  A    between atoms: _129  and  _132
REMARK   45  A    between atoms: _132  and  _133
REMARK   46  A    between atoms: _139  and  _141
REMARK   47  A    between atoms: _141  and  _142
REMARK   48  A    between atoms: _141  and  _144
REMARK   49  A    between atoms: _144  and  _145
REMARK   50  A    between atoms: _145  and  _146
REMARK   51  A    between atoms: _146  and  _147
REMARK   52  A    between atoms: _156  and  _158
REMARK   53  A    between atoms: _158  and  _159
REMARK   54  A    between atoms: _158  and  _161
REMARK   55  A    between atoms: _161  and  _162
REMARK   56  A    between atoms: _167  and  _168
REMARK   57  A    between atoms: _170  and  _172
REMARK   58  A    between atoms: _172  and  _173
REMARK   59  A    between atoms: _172  and  _175
REMARK   60  A    between atoms: _175  and  _176
REMARK   61  A    between atoms: _178  and  _180
REMARK   62  A    between atoms: _180  and  _181
REMARK   63  A    between atoms: _180  and  _183
REMARK   64  A    between atoms: _183  and  _184
REMARK   65  A    between atoms: _189  and  _190
REMARK   66  A    between atoms: _192  and  _194
REMARK   67  A    between atoms: _194  and  _195
REMARK   68  A    between atoms: _194  and  _197
REMARK   69  A    between atoms: _197  and  _198
REMARK   70  A    between atoms: _201  and  _203
REMARK   71  A    between atoms: _203  and  _204
REMARK   72  A    between atoms: _203  and  _206
REMARK   73  A    between atoms: _206  and  _207
REMARK   74  A    between atoms: _210  and  _212
REMARK   75  A    between atoms: _212  and  _213
REMARK   76  A    between atoms: _212  and  _215
REMARK   77  A    between atoms: _215  and  _216
REMARK   78  A    between atoms: _219  and  _221
REMARK   79  A    between atoms: _221  and  _222
REMARK   80  A    between atoms: _221  and  _224
REMARK   81  A    between atoms: _224  and  _225
REMARK   82  A    between atoms: _231  and  _233
REMARK   83  A    between atoms: _233  and  _234
REMARK   84  A    between atoms: _233  and  _236
REMARK   85  A    between atoms: _236  and  _237
REMARK   86  A    between atoms: _242  and  _243
REMARK   87  A    between atoms: _245  and  _247
REMARK   88  A    between atoms: _247  and  _248
REMARK   89  A    between atoms: _247  and  _250
REMARK   90  A    between atoms: _250  and  _251
REMARK   91  A    between atoms: _254  and  _256
REMARK   92  A    between atoms: _256  and  _257
REMARK   93  A    between atoms: _256  and  _259
REMARK   94  A    between atoms: _259  and  _260
REMARK   95  A    between atoms: _270  and  _272
REMARK   96  A    between atoms: _272  and  _273
REMARK   97  A    between atoms: _272  and  _275
REMARK   98  A    between atoms: _275  and  _276
REMARK   99  A    between atoms: _281  and  _283
REMARK  100  A    between atoms: _283  and  _284
REMARK  101  A    between atoms: _283  and  _286
REMARK  102  A    between atoms: _286  and  _287
REMARK  103  A    between atoms: _291  and  ZN_414
REMARK  104  A    between atoms: _292  and  _294
REMARK  105  A    between atoms: _294  and  _295
REMARK  106  A    between atoms: _294  and  _297
REMARK  107  A    between atoms: _297  and  _298
REMARK  108  A    between atoms: _301  and  _303
REMARK  109  A    between atoms: _303  and  _304
REMARK  110  A    between atoms: _306  and  _308
REMARK  111  A    between atoms: _308  and  _309
REMARK  112  A    between atoms: _308  and  _311
REMARK  113  A    between atoms: _311  and  _312
REMARK  114  A    between atoms: _315  and  _317
REMARK  115  A    between atoms: _317  and  _318
REMARK  116  A    between atoms: _317  and  _320
REMARK  117  A    between atoms: _320  and  _321
REMARK  118  A    between atoms: _324  and  _326
REMARK  119  A    between atoms: _326  and  _327
REMARK  120  A    between atoms: _330  and  _332
REMARK  121  A    between atoms: _332  and  _333
REMARK  122  A    between atoms: _336  and  _338
REMARK  123  A    between atoms: _338  and  _339
REMARK  124  A    between atoms: _338  and  _341
REMARK  125  A    between atoms: _341  and  _342
REMARK  126  A    between atoms: _347  and  _348
REMARK  127  A    between atoms: _350  and  _352
REMARK  128  A    between atoms: _352  and  _353
REMARK  129  A    between atoms: _352  and  _355
REMARK  130  A    between atoms: _355  and  _356
REMARK  131  A    between atoms: _359  and  _361
REMARK  132  A    between atoms: _361  and  _362
REMARK  133  A    between atoms: _361  and  _364
REMARK  134  A    between atoms: _364  and  _365
REMARK  135  A    between atoms: _368  and  _370
REMARK  136  A    between atoms: _370  and  _371
REMARK  137  A    between atoms: _370  and  _373
REMARK  138  A    between atoms: _373  and  _374
REMARK  139  A    between atoms: _374  and  _375
REMARK  140  A    between atoms: _378  and  _380
REMARK  141  A    between atoms: _380  and  _381
REMARK  142  A    between atoms: _380  and  _383
REMARK  143  A    between atoms: _383  and  _384
REMARK  144  A    between atoms: _384  and  _385
REMARK  145  A    between atoms: _385  and  _386
REMARK  146  A    between atoms: _395  and  _397
REMARK  147  A    between atoms: _397  and  _398
REMARK  148  A    between atoms: _400  and  _402
REMARK  149  A    between atoms: _402  and  _403
REMARK  150  A    between atoms: _402  and  _405
REMARK  151  A    between atoms: _405  and  _406
REMARK  152  A    between atoms: _409  and  _411
REMARK  153  A    between atoms: _411  and  _412
REMARK                            x       y       z     vdW  Elec       q    Type
REMARK                         _______ _______ _______ _____ _____    ______ ____
ROOT
ATOM      1  CG  TYR A   1      24.997  59.877   0.883  0.00  0.00    -0.020 A 
ATOM      2  CD2 TYR A   1      24.434  58.856   1.650  0.00  0.00    -0.001 A 
ATOM      3  CE2 TYR A   1      24.316  58.978   3.032  0.00  0.00    +0.036 A 
ATOM      4  CZ  TYR A   1      24.763  60.130   3.661  0.00  0.00    +0.134 A 
ATOM      5  CE1 TYR A   1      25.311  61.161   2.919  0.00  0.00    +0.036 A 
ATOM      6  CD1 TYR A   1      25.420  61.029   1.536  0.00  0.00    -0.001 A 
ENDROOT
BRANCH   4   7
ATOM      7  OH  TYR A   1      24.715  60.238   5.034  0.00  0.00    -0.506 OA
ATOM      8  HH  TYR A   1      24.298  59.424   5.413  0.00  0.00    +0.292 HD
ENDBRANCH   4   7
BRANCH   1   9
ATOM      9  CB  TYR A   1      25.258  59.695  -0.598  0.00  0.00    +0.051 C 
BRANCH   9  10
ATOM     10  CA  TYR A   1      24.029  59.465  -1.474  0.00  0.00    +0.137 C 
BRANCH  10  11
ATOM     11  N   TYR A   1      24.451  59.513  -2.864  0.00  0.00    -0.239 NA
ATOM     12  H   TYR A   1      25.418  59.832  -3.075  0.00  0.00    +0.142 HD
ENDBRANCH  10  11
BRANCH  10  13
ATOM     13  C   TYR A   1      22.935  60.449  -1.071  0.00  0.00    +0.224 C 
ATOM     14  O   TYR A   1      22.909  61.588  -1.521  0.00  0.00    -0.287 OA
ENDBRANCH  10  13
ENDBRANCH   9  10
ENDBRANCH   1   9
TORSDOF 5
REMARK  Name = ../refined-set-2016/1ps3/1ps3_pocket.pdb
REMARK  153 active torsions:
REMARK  status: ('A' for Active; 'I' for Inactive)
REMARK    1  A    between atoms: _1  and  _3
REMARK    2  A    between atoms: _14  and  _17
REMARK    3  A    between atoms: _17  and  _18
REMARK    4  A    between atoms: _25  and  _26
REMARK    5  A    between atoms: _33  and  _34
REMARK    6  A    between atoms: _39  and  _41
REMARK    7  A    between atoms: _41  and  _42
REMARK    8  A    between atoms: _44  and  _46
REMARK    9  A    between atoms: _46  and  _47
REMARK   10  A    between atoms: _46  and  _49
REMARK   11  A    between atoms: _49  and  _50
REMARK   12  A    between atoms: _60  and  _62
REMARK   13  A    between atoms: _62  and  _63
REMARK   14  A    between atoms: _62  and  _65
REMARK   15  A    between atoms: _65  and  _66
REMARK   16  A    between atoms: _69  and  _71
REMARK   17  A    between atoms: _71  and  _72
REMARK   18  A    between atoms: _71  and  _74
REMARK   19  A    between atoms: _74  and  _75
REMARK   20  A    between atoms: _80  and  _81
REMARK   21  A    between atoms: _83  and  _85
REMARK   22  A    between atoms: _85  and  _86
REMARK   23  A    between atoms: _85  and  _88
REMARK   24  A    between atoms: _88  and  _89
REMARK   25  A    between atoms: _89  and  _90
REMARK   26  A    between atoms: _93  and  _95
REMARK   27  A    between atoms: _95  and  _96
REMARK   28  A    between atoms: _95  and  _98
REMARK   29  A    between atoms: _98  and  _99
REMARK   30  A    between atoms: _99  and  _100
REMARK   31  A    between atoms: _102  and  _104
REMARK   32  A    between atoms: _104  and  _105
REMARK   33  A    between atoms: _104  and  _107
REMARK   34  A    between atoms: _107  and  _108
REMARK   35  A    between atoms: _111  and  _113
REMARK   36  A    between atoms: _113  and  _114
REMARK   37  A    between atoms: _113  and  _116
REMARK   38  A    between atoms: _116  and  _117
REMARK   39  A    between atoms: _117  and  _118
REMARK   40  A    between atoms: _118  and  ZN_414
REMARK   41  A    between atoms: _121  and  _122
REMARK   42  A    between atoms: _127  and  _129
REMARK   43  A    between atoms: _129  and  _130
REMARK   44  A    between atoms: _129  and  _132
REMARK   45  A    between atoms: _132  and  _133
REMARK   46  A    between atoms: _139  and  _141
REMARK   47  A    between atoms: _141  and  _142
REMARK   48  A    between atoms: _141  and  _144
REMARK   49  A    between atoms: _144  and  _145
REMARK   50  A    between atoms: _145  and  _146
REMARK   51  A    between atoms: _146  and  _147
REMARK   52  A    between atoms: _156  and  _158
REMARK   53  A    between atoms: _158  and  _159
REMARK   54  A    between atoms: _158  and  _161
REMARK   55  A    between atoms: _161  and  _162
REMARK   56  A    between atoms: _167  and  _168
REMARK   57  A    between atoms: _170  and  _172
REMARK   58  A    between atoms: _172  and  _173
REMARK   59  A    between atoms: _172  and  _175
REMARK   60  A    between atoms: _175  and  _176
REMARK   61  A    between atoms: _178  and  _180
REMARK   62  A    between atoms: _180  and  _181
REMARK   63  A    between atoms: _180  and  _183
REMARK   64  A    between atoms: _183  and  _184
REMARK   65  A    between atoms: _189  and  _190
REMARK   66  A    between atoms: _192  and  _194
REMARK   67  A    between atoms: _194  and  _195
REMARK   68  A    between atoms: _194  and  _197
REMARK   69  A    between atoms: _197  and  _198
REMARK   70  A    between atoms: _201  and  _203
REMARK   71  A    between atoms: _203  and  _204
REMARK   72  A    between atoms: _203  and  _206
REMARK   73  A    between atoms: _206  and  _207
REMARK   74  A    between atoms: _210  and  _212
REMARK   75  A    between atoms: _212  and  _213
REMARK   76  A    between atoms: _212  and  _215
REMARK   77  A    between atoms: _215  and  _216
REMARK   78  A    between atoms: _219  and  _221
REMARK   79  A    between atoms: _221  and  _222
REMARK   80  A    between atoms: _221  and  _224
REMARK   81  A    between atoms: _224  and  _225
REMARK   82  A    between atoms: _231  and  _233
REMARK   83  A    between atoms: _233  and  _234
REMARK   84  A    between atoms: _233  and  _236
REMARK   85  A    between atoms: _236  and  _237
REMARK   86  A    between atoms: _242  and  _243
REMARK   87  A    between atoms: _245  and  _247
REMARK   88  A    between atoms: _247  and  _248
REMARK   89  A    between atoms: _247  and  _250
REMARK   90  A    between atoms: _250  and  _251
REMARK   91  A    between atoms: _254  and  _256
REMARK   92  A    between atoms: _256  and  _257
REMARK   93  A    between atoms: _256  and  _259
REMARK   94  A    between atoms: _259  and  _260
REMARK   95  A    between atoms: _270  and  _272
REMARK   96  A    between atoms: _272  and  _273
REMARK   97  A    between atoms: _272  and  _275
REMARK   98  A    between atoms: _275  and  _276
REMARK   99  A    between atoms: _281  and  _283
REMARK  100  A    between atoms: _283  and  _284
REMARK  101  A    between atoms: _283  and  _286
REMARK  102  A    between atoms: _286  and  _287
REMARK  103  A    between atoms: _291  and  ZN_414
REMARK  104  A    between atoms: _292  and  _294
REMARK  105  A    between atoms: _294  and  _295
REMARK  106  A    between atoms: _294  and  _297
REMARK  107  A    between atoms: _297  and  _298
REMARK  108  A    between atoms: _301  and  _303
REMARK  109  A    between atoms: _303  and  _304
REMARK  110  A    between atoms: _306  and  _308
REMARK  111  A    between atoms: _308  and  _309
REMARK  112  A    between atoms: _308  and  _311
REMARK  113  A    between atoms: _311  and  _312
REMARK  114  A    between atoms: _315  and  _317
REMARK  115  A    between atoms: _317  and  _318
REMARK  116  A    between atoms: _317  and  _320
REMARK  117  A    between atoms: _320  and  _321
REMARK  118  A    between atoms: _324  and  _326
REMARK  119  A    between atoms: _326  and  _327
REMARK  120  A    between atoms: _330  and  _332
REMARK  121  A    between atoms: _332  and  _333
REMARK  122  A    between atoms: _336  and  _338
REMARK  123  A    between atoms: _338  and  _339
REMARK  124  A    between atoms: _338  and  _341
REMARK  125  A    between atoms: _341  and  _342
REMARK  126  A    between atoms: _347  and  _348
REMARK  127  A    between atoms: _350  and  _352
REMARK  128  A    between atoms: _352  and  _353
REMARK  129  A    between atoms: _352  and  _355
REMARK  130  A    between atoms: _355  and  _356
REMARK  131  A    between atoms: _359  and  _361
REMARK  132  A    between atoms: _361  and  _362
REMARK  133  A    between atoms: _361  and  _364
REMARK  134  A    between atoms: _364  and  _365
REMARK  135  A    between atoms: _368  and  _370
REMARK  136  A    between atoms: _370  and  _371
REMARK  137  A    between atoms: _370  and  _373
REMARK  138  A    between atoms: _373  and  _374
REMARK  139  A    between atoms: _374  and  _375
REMARK  140  A    between atoms: _378  and  _380
REMARK  141  A    between atoms: _380  and  _381
REMARK  142  A    between atoms: _380  and  _383
REMARK  143  A    between atoms: _383  and  _384
REMARK  144  A    between atoms: _384  and  _385
REMARK  145  A    between atoms: _385  and  _386
REMARK  146  A    between atoms: _395  and  _397
REMARK  147  A    between atoms: _397  and  _398
REMARK  148  A    between atoms: _400  and  _402
REMARK  149  A    between atoms: _402  and  _403
REMARK  150  A    between atoms: _402  and  _405
REMARK  151  A    between atoms: _405  and  _406
REMARK  152  A    between atoms: _409  and  _411
REMARK  153  A    between atoms: _411  and  _412
REMARK                            x       y       z     vdW  Elec       q    Type
REMARK                         _______ _______ _______ _____ _____    ______ ____
ROOT
ATOM      1  CA  ASP A   1      20.871  60.906   4.152  0.00  0.00    +0.144 C 
ENDROOT
BRANCH   1   2
ATOM      2  N   ASP A   1      20.942  61.279   2.742  0.00  0.00    -0.239 NA
ATOM      3  H   ASP A   1      21.053  62.277   2.473  0.00  0.00    +0.142 HD
ENDBRANCH   1   2
BRANCH   1   4
ATOM      4  C   ASP A   1      19.453  60.965   4.715  0.00  0.00    +0.225 C 
ATOM      5  O   ASP A   1      19.162  60.356   5.744  0.00  0.00    -0.287 OA
ENDBRANCH   1   4
BRANCH   1   6
ATOM      6  CB  ASP A   1      21.852  61.746   4.999  0.00  0.00    +0.139 C 
BRANCH   6   7
ATOM      7  CG  ASP A   1      21.584  63.245   4.937  0.00  0.00    +0.367 C 
ATOM      8  OD2 ASP A   1      22.105  63.970   5.821  0.00  0.00    -0.246 OA
ATOM      9  OD1 ASP A   1      20.880  63.705   4.017  0.00  0.00    -0.246 OA
ENDBRANCH   6   7
ENDBRANCH   1   6
TORSDOF 4
REMARK  Name = ../refined-set-2016/1ps3/1ps3_pocket.pdb
REMARK  153 active torsions:
REMARK  status: ('A' for Active; 'I' for Inactive)
REMARK    1  A    between atoms: _1  and  _3
REMARK    2  A    between atoms: _14  and  _17
REMARK    3  A    between atoms: _17  and  _18
REMARK    4  A    between atoms: _25  and  _26
REMARK    5  A    between atoms: _33  and  _34
REMARK    6  A    between atoms: _39  and  _41
REMARK    7  A    between atoms: _41  and  _42
REMARK    8  A    between atoms: _44  and  _46
REMARK    9  A    between atoms: _46  and  _47
REMARK   10  A    between atoms: _46  and  _49
REMARK   11  A    between atoms: _49  and  _50
REMARK   12  A    between atoms: _60  and  _62
REMARK   13  A    between atoms: _62  and  _63
REMARK   14  A    between atoms: _62  and  _65
REMARK   15  A    between atoms: _65  and  _66
REMARK   16  A    between atoms: _69  and  _71
REMARK   17  A    between atoms: _71  and  _72
REMARK   18  A    between atoms: _71  and  _74
REMARK   19  A    between atoms: _74  and  _75
REMARK   20  A    between atoms: _80  and  _81
REMARK   21  A    between atoms: _83  and  _85
REMARK   22  A    between atoms: _85  and  _86
REMARK   23  A    between atoms: _85  and  _88
REMARK   24  A    between atoms: _88  and  _89
REMARK   25  A    between atoms: _89  and  _90
REMARK   26  A    between atoms: _93  and  _95
REMARK   27  A    between atoms: _95  and  _96
REMARK   28  A    between atoms: _95  and  _98
REMARK   29  A    between atoms: _98  and  _99
REMARK   30  A    between atoms: _99  and  _100
REMARK   31  A    between atoms: _102  and  _104
REMARK   32  A    between atoms: _104  and  _105
REMARK   33  A    between atoms: _104  and  _107
REMARK   34  A    between atoms: _107  and  _108
REMARK   35  A    between atoms: _111  and  _113
REMARK   36  A    between atoms: _113  and  _114
REMARK   37  A    between atoms: _113  and  _116
REMARK   38  A    between atoms: _116  and  _117
REMARK   39  A    between atoms: _117  and  _118
REMARK   40  A    between atoms: _118  and  ZN_414
REMARK   41  A    between atoms: _121  and  _122
REMARK   42  A    between atoms: _127  and  _129
REMARK   43  A    between atoms: _129  and  _130
REMARK   44  A    between atoms: _129  and  _132
REMARK   45  A    between atoms: _132  and  _133
REMARK   46  A    between atoms: _139  and  _141
REMARK   47  A    between atoms: _141  and  _142
REMARK   48  A    between atoms: _141  and  _144
REMARK   49  A    between atoms: _144  and  _145
REMARK   50  A    between atoms: _145  and  _146
REMARK   51  A    between atoms: _146  and  _147
REMARK   52  A    between atoms: _156  and  _158
REMARK   53  A    between atoms: _158  and  _159
REMARK   54  A    between atoms: _158  and  _161
REMARK   55  A    between atoms: _161  and  _162
REMARK   56  A    between atoms: _167  and  _168
REMARK   57  A    between atoms: _170  and  _172
REMARK   58  A    between atoms: _172  and  _173
REMARK   59  A    between atoms: _172  and  _175
REMARK   60  A    between atoms: _175  and  _176
REMARK   61  A    between atoms: _178  and  _180
REMARK   62  A    between atoms: _180  and  _181
REMARK   63  A    between atoms: _180  and  _183
REMARK   64  A    between atoms: _183  and  _184
REMARK   65  A    between atoms: _189  and  _190
REMARK   66  A    between atoms: _192  and  _194
REMARK   67  A    between atoms: _194  and  _195
REMARK   68  A    between atoms: _194  and  _197
REMARK   69  A    between atoms: _197  and  _198
REMARK   70  A    between atoms: _201  and  _203
REMARK   71  A    between atoms: _203  and  _204
REMARK   72  A    between atoms: _203  and  _206
REMARK   73  A    between atoms: _206  and  _207
REMARK   74  A    between atoms: _210  and  _212
REMARK   75  A    between atoms: _212  and  _213
REMARK   76  A    between atoms: _212  and  _215
REMARK   77  A    between atoms: _215  and  _216
REMARK   78  A    between atoms: _219  and  _221
REMARK   79  A    between atoms: _221  and  _222
REMARK   80  A    between atoms: _221  and  _224
REMARK   81  A    between atoms: _224  and  _225
REMARK   82  A    between atoms: _231  and  _233
REMARK   83  A    between atoms: _233  and  _234
REMARK   84  A    between atoms: _233  and  _236
REMARK   85  A    between atoms: _236  and  _237
REMARK   86  A    between atoms: _242  and  _243
REMARK   87  A    between atoms: _245  and  _247
REMARK   88  A    between atoms: _247  and  _248
REMARK   89  A    between atoms: _247  and  _250
REMARK   90  A    between atoms: _250  and  _251
REMARK   91  A    between atoms: _254  and  _256
REMARK   92  A    between atoms: _256  and  _257
REMARK   93  A    between atoms: _256  and  _259
REMARK   94  A    between atoms: _259  and  _260
REMARK   95  A    between atoms: _270  and  _272
REMARK   96  A    between atoms: _272  and  _273
REMARK   97  A    between atoms: _272  and  _275
REMARK   98  A    between atoms: _275  and  _276
REMARK   99  A    between atoms: _281  and  _283
REMARK  100  A    between atoms: _283  and  _284
REMARK  101  A    between atoms: _283  and  _286
REMARK  102  A    between atoms: _286  and  _287
REMARK  103  A    between atoms: _291  and  ZN_414
REMARK  104  A    between atoms: _292  and  _294
REMARK  105  A    between atoms: _294  and  _295
REMARK  106  A    between atoms: _294  and  _297
REMARK  107  A    between atoms: _297  and  _298
REMARK  108  A    between atoms: _301  and  _303
REMARK  109  A    between atoms: _303  and  _304
REMARK  110  A    between atoms: _306  and  _308
REMARK  111  A    between atoms: _308  and  _309
REMARK  112  A    between atoms: _308  and  _311
REMARK  113  A    between atoms: _311  and  _312
REMARK  114  A    between atoms: _315  and  _317
REMARK  115  A    between atoms: _317  and  _318
REMARK  116  A    between atoms: _317  and  _320
REMARK  117  A    between atoms: _320  and  _321
REMARK  118  A    between atoms: _324  and  _326
REMARK  119  A    between atoms: _326  and  _327
REMARK  120  A    between atoms: _330  and  _332
REMARK  121  A    between atoms: _332  and  _333
REMARK  122  A    between atoms: _336  and  _338
REMARK  123  A    between atoms: _338  and  _339
REMARK  124  A    between atoms: _338  and  _341
REMARK  125  A    between atoms: _341  and  _342
REMARK  126  A    between atoms: _347  and  _348
REMARK  127  A    between atoms: _350  and  _352
REMARK  128  A    between atoms: _352  and  _353
REMARK  129  A    between atoms: _352  and  _355
REMARK  130  A    between atoms: _355  and  _356
REMARK  131  A    between atoms: _359  and  _361
REMARK  132  A    between atoms: _361  and  _362
REMARK  133  A    between atoms: _361  and  _364
REMARK  134  A    between atoms: _364  and  _365
REMARK  135  A    between atoms: _368  and  _370
REMARK  136  A    between atoms: _370  and  _371
REMARK  137  A    between atoms: _370  and  _373
REMARK  138  A    between atoms: _373  and  _374
REMARK  139  A    between atoms: _374  and  _375
REMARK  140  A    between atoms: _378  and  _380
REMARK  141  A    between atoms: _380  and  _381
REMARK  142  A    between atoms: _380  and  _383
REMARK  143  A    between atoms: _383  and  _384
REMARK  144  A    between atoms: _384  and  _385
REMARK  145  A    between atoms: _385  and  _386
REMARK  146  A    between atoms: _395  and  _397
REMARK  147  A    between atoms: _397  and  _398
REMARK  148  A    between atoms: _400  and  _402
REMARK  149  A    between atoms: _402  and  _403
REMARK  150  A    between atoms: _402  and  _405
REMARK  151  A    between atoms: _405  and  _406
REMARK  152  A    between atoms: _409  and  _411
REMARK  153  A    between atoms: _411  and  _412
REMARK                            x       y       z     vdW  Elec       q    Type
REMARK                         _______ _______ _______ _____ _____    ______ ____
ROOT
ATOM      1  CG  TRP A   1      24.790  64.505   0.451  0.00  0.00    -0.002 A 
ATOM      2  CD2 TRP A   1      25.521  64.751   1.660  0.00  0.00    +0.013 A 
ATOM      3  CE2 TRP A   1      24.611  64.618   2.736  0.00  0.00    +0.056 A 
ATOM      4  CZ2 TRP A   1      24.998  64.793   4.072  0.00  0.00    +0.017 A 
ATOM      5  CH2 TRP A   1      26.314  65.103   4.314  0.00  0.00    +0.001 A 
ATOM      6  CZ3 TRP A   1      27.242  65.242   3.262  0.00  0.00    +0.000 A 
ATOM      7  NE1 TRP A   1      23.387  64.308   2.203  0.00  0.00    -0.352 N 
ATOM      8  HE1 TRP A   1      22.514  64.150   2.746  0.00  0.00    +0.166 HD
ATOM      9  CE3 TRP A   1      26.858  65.069   1.939  0.00  0.00    +0.001 A 
ATOM     10  CD1 TRP A   1      23.501  64.240   0.834  0.00  0.00    +0.068 A 
ENDROOT
BRANCH   1  11
ATOM     11  CB  TRP A   1      25.350  64.483  -0.960  0.00  0.00    +0.053 C 
BRANCH  11  12
ATOM     12  CA  TRP A   1      24.439  65.107  -2.026  0.00  0.00    +0.137 C 
BRANCH  12  13
ATOM     13  N   TRP A   1      23.171  64.386  -2.057  0.00  0.00    -0.239 NA
ATOM     14  H   TRP A   1      23.159  63.383  -1.781  0.00  0.00    +0.142 HD
ENDBRANCH  12  13
BRANCH  12  15
ATOM     15  C   TRP A   1      25.159  65.111  -3.376  0.00  0.00    +0.224 C 
ATOM     16  O   TRP A   1      26.268  64.597  -3.496  0.00  0.00    -0.287 OA
ENDBRANCH  12  15
ENDBRANCH  11  12
ENDBRANCH   1  11
TORSDOF 4
REMARK  Name = ../refined-set-2016/1ps3/1ps3_pocket.pdb
REMARK  153 active torsions:
REMARK  status: ('A' for Active; 'I' for Inactive)
REMARK    1  A    between atoms: _1  and  _3
REMARK    2  A    between atoms: _14  and  _17
REMARK    3  A    between atoms: _17  and  _18
REMARK    4  A    between atoms: _25  and  _26
REMARK    5  A    between atoms: _33  and  _34
REMARK    6  A    between atoms: _39  and  _41
REMARK    7  A    between atoms: _41  and  _42
REMARK    8  A    between atoms: _44  and  _46
REMARK    9  A    between atoms: _46  and  _47
REMARK   10  A    between atoms: _46  and  _49
REMARK   11  A    between atoms: _49  and  _50
REMARK   12  A    between atoms: _60  and  _62
REMARK   13  A    between atoms: _62  and  _63
REMARK   14  A    between atoms: _62  and  _65
REMARK   15  A    between atoms: _65  and  _66
REMARK   16  A    between atoms: _69  and  _71
REMARK   17  A    between atoms: _71  and  _72
REMARK   18  A    between atoms: _71  and  _74
REMARK   19  A    between atoms: _74  and  _75
REMARK   20  A    between atoms: _80  and  _81
REMARK   21  A    between atoms: _83  and  _85
REMARK   22  A    between atoms: _85  and  _86
REMARK   23  A    between atoms: _85  and  _88
REMARK   24  A    between atoms: _88  and  _89
REMARK   25  A    between atoms: _89  and  _90
REMARK   26  A    between atoms: _93  and  _95
REMARK   27  A    between atoms: _95  and  _96
REMARK   28  A    between atoms: _95  and  _98
REMARK   29  A    between atoms: _98  and  _99
REMARK   30  A    between atoms: _99  and  _100
REMARK   31  A    between atoms: _102  and  _104
REMARK   32  A    between atoms: _104  and  _105
REMARK   33  A    between atoms: _104  and  _107
REMARK   34  A    between atoms: _107  and  _108
REMARK   35  A    between atoms: _111  and  _113
REMARK   36  A    between atoms: _113  and  _114
REMARK   37  A    between atoms: _113  and  _116
REMARK   38  A    between atoms: _116  and  _117
REMARK   39  A    between atoms: _117  and  _118
REMARK   40  A    between atoms: _118  and  ZN_414
REMARK   41  A    between atoms: _121  and  _122
REMARK   42  A    between atoms: _127  and  _129
REMARK   43  A    between atoms: _129  and  _130
REMARK   44  A    between atoms: _129  and  _132
REMARK   45  A    between atoms: _132  and  _133
REMARK   46  A    between atoms: _139  and  _141
REMARK   47  A    between atoms: _141  and  _142
REMARK   48  A    between atoms: _141  and  _144
REMARK   49  A    between atoms: _144  and  _145
REMARK   50  A    between atoms: _145  and  _146
REMARK   51  A    between atoms: _146  and  _147
REMARK   52  A    between atoms: _156  and  _158
REMARK   53  A    between atoms: _158  and  _159
REMARK   54  A    between atoms: _158  and  _161
REMARK   55  A    between atoms: _161  and  _162
REMARK   56  A    between atoms: _167  and  _168
REMARK   57  A    between atoms: _170  and  _172
REMARK   58  A    between atoms: _172  and  _173
REMARK   59  A    between atoms: _172  and  _175
REMARK   60  A    between atoms: _175  and  _176
REMARK   61  A    between atoms: _178  and  _180
REMARK   62  A    between atoms: _180  and  _181
REMARK   63  A    between atoms: _180  and  _183
REMARK   64  A    between atoms: _183  and  _184
REMARK   65  A    between atoms: _189  and  _190
REMARK   66  A    between atoms: _192  and  _194
REMARK   67  A    between atoms: _194  and  _195
REMARK   68  A    between atoms: _194  and  _197
REMARK   69  A    between atoms: _197  and  _198
REMARK   70  A    between atoms: _201  and  _203
REMARK   71  A    between atoms: _203  and  _204
REMARK   72  A    between atoms: _203  and  _206
REMARK   73  A    between atoms: _206  and  _207
REMARK   74  A    between atoms: _210  and  _212
REMARK   75  A    between atoms: _212  and  _213
REMARK   76  A    between atoms: _212  and  _215
REMARK   77  A    between atoms: _215  and  _216
REMARK   78  A    between atoms: _219  and  _221
REMARK   79  A    between atoms: _221  and  _222
REMARK   80  A    between atoms: _221  and  _224
REMARK   81  A    between atoms: _224  and  _225
REMARK   82  A    between atoms: _231  and  _233
REMARK   83  A    between atoms: _233  and  _234
REMARK   84  A    between atoms: _233  and  _236
REMARK   85  A    between atoms: _236  and  _237
REMARK   86  A    between atoms: _242  and  _243
REMARK   87  A    between atoms: _245  and  _247
REMARK   88  A    between atoms: _247  and  _248
REMARK   89  A    between atoms: _247  and  _250
REMARK   90  A    between atoms: _250  and  _251
REMARK   91  A    between atoms: _254  and  _256
REMARK   92  A    between atoms: _256  and  _257
REMARK   93  A    between atoms: _256  and  _259
REMARK   94  A    between atoms: _259  and  _260
REMARK   95  A    between atoms: _270  and  _272
REMARK   96  A    between atoms: _272  and  _273
REMARK   97  A    between atoms: _272  and  _275
REMARK   98  A    between atoms: _275  and  _276
REMARK   99  A    between atoms: _281  and  _283
REMARK  100  A    between atoms: _283  and  _284
REMARK  101  A    between atoms: _283  and  _286
REMARK  102  A    between atoms: _286  and  _287
REMARK  103  A    between atoms: _291  and  ZN_414
REMARK  104  A    between atoms: _292  and  _294
REMARK  105  A    between atoms: _294  and  _295
REMARK  106  A    between atoms: _294  and  _297
REMARK  107  A    between atoms: _297  and  _298
REMARK  108  A    between atoms: _301  and  _303
REMARK  109  A    between atoms: _303  and  _304
REMARK  110  A    between atoms: _306  and  _308
REMARK  111  A    between atoms: _308  and  _309
REMARK  112  A    between atoms: _308  and  _311
REMARK  113  A    between atoms: _311  and  _312
REMARK  114  A    between atoms: _315  and  _317
REMARK  115  A    between atoms: _317  and  _318
REMARK  116  A    between atoms: _317  and  _320
REMARK  117  A    between atoms: _320  and  _321
REMARK  118  A    between atoms: _324  and  _326
REMARK  119  A    between atoms: _326  and  _327
REMARK  120  A    between atoms: _330  and  _332
REMARK  121  A    between atoms: _332  and  _333
REMARK  122  A    between atoms: _336  and  _338
REMARK  123  A    between atoms: _338  and  _339
REMARK  124  A    between atoms: _338  and  _341
REMARK  125  A    between atoms: _341  and  _342
REMARK  126  A    between atoms: _347  and  _348
REMARK  127  A    between atoms: _350  and  _352
REMARK  128  A    between atoms: _352  and  _353
REMARK  129  A    between atoms: _352  and  _355
REMARK  130  A    between atoms: _355  and  _356
REMARK  131  A    between atoms: _359  and  _361
REMARK  132  A    between atoms: _361  and  _362
REMARK  133  A    between atoms: _361  and  _364
REMARK  134  A    between atoms: _364  and  _365
REMARK  135  A    between atoms: _368  and  _370
REMARK  136  A    between atoms: _370  and  _371
REMARK  137  A    between atoms: _370  and  _373
REMARK  138  A    between atoms: _373  and  _374
REMARK  139  A    between atoms: _374  and  _375
REMARK  140  A    between atoms: _378  and  _380
REMARK  141  A    between atoms: _380  and  _381
REMARK  142  A    between atoms: _380  and  _383
REMARK  143  A    between atoms: _383  and  _384
REMARK  144  A    between atoms: _384  and  _385
REMARK  145  A    between atoms: _385  and  _386
REMARK  146  A    between atoms: _395  and  _397
REMARK  147  A    between atoms: _397  and  _398
REMARK  148  A    between atoms: _400  and  _402
REMARK  149  A    between atoms: _402  and  _403
REMARK  150  A    between atoms: _402  and  _405
REMARK  151  A    between atoms: _405  and  _406
REMARK  152  A    between atoms: _409  and  _411
REMARK  153  A    between atoms: _411  and  _412
REMARK                            x       y       z     vdW  Elec       q    Type
REMARK                         _______ _______ _______ _____ _____    ______ ____
ROOT
ATOM      1  CA  THR A   1      34.737  68.085  -2.476  0.00  0.00    +0.160 C 
ENDROOT
BRANCH   1   2
ATOM      2  N   THR A   1      36.200  68.055  -2.439  0.00  0.00    -0.237 NA
ATOM      3  H   THR A   1      36.676  67.721  -1.576  0.00  0.00    +0.142 HD
ENDBRANCH   1   2
BRANCH   1   4
ATOM      4  CB  THR A   1      34.144  67.403  -1.238  0.00  0.00    +0.134 C 
ATOM      5  CG2 THR A   1      34.580  65.946  -1.146  0.00  0.00    +0.034 C 
BRANCH   4   6
ATOM      6  OG1 THR A   1      34.585  68.112  -0.075  0.00  0.00    -0.383 OA
ATOM      7  HG1 THR A   1      34.209  67.682   0.734  0.00  0.00    +0.210 HD
ENDBRANCH   4   6
ENDBRANCH   1   4
BRANCH   1   8
ATOM      8  C   THR A   1      34.173  69.510  -2.496  0.00  0.00    +0.227 C 
ATOM      9  O   THR A   1      33.016  69.725  -2.867  0.00  0.00    -0.287 OA
ENDBRANCH   1   8
TORSDOF 4
REMARK  Name = ../refined-set-2016/1ps3/1ps3_pocket.pdb
REMARK  153 active torsions:
REMARK  status: ('A' for Active; 'I' for Inactive)
REMARK    1  A    between atoms: _1  and  _3
REMARK    2  A    between atoms: _14  and  _17
REMARK    3  A    between atoms: _17  and  _18
REMARK    4  A    between atoms: _25  and  _26
REMARK    5  A    between atoms: _33  and  _34
REMARK    6  A    between atoms: _39  and  _41
REMARK    7  A    between atoms: _41  and  _42
REMARK    8  A    between atoms: _44  and  _46
REMARK    9  A    between atoms: _46  and  _47
REMARK   10  A    between atoms: _46  and  _49
REMARK   11  A    between atoms: _49  and  _50
REMARK   12  A    between atoms: _60  and  _62
REMARK   13  A    between atoms: _62  and  _63
REMARK   14  A    between atoms: _62  and  _65
REMARK   15  A    between atoms: _65  and  _66
REMARK   16  A    between atoms: _69  and  _71
REMARK   17  A    between atoms: _71  and  _72
REMARK   18  A    between atoms: _71  and  _74
REMARK   19  A    between atoms: _74  and  _75
REMARK   20  A    between atoms: _80  and  _81
REMARK   21  A    between atoms: _83  and  _85
REMARK   22  A    between atoms: _85  and  _86
REMARK   23  A    between atoms: _85  and  _88
REMARK   24  A    between atoms: _88  and  _89
REMARK   25  A    between atoms: _89  and  _90
REMARK   26  A    between atoms: _93  and  _95
REMARK   27  A    between atoms: _95  and  _96
REMARK   28  A    between atoms: _95  and  _98
REMARK   29  A    between atoms: _98  and  _99
REMARK   30  A    between atoms: _99  and  _100
REMARK   31  A    between atoms: _102  and  _104
REMARK   32  A    between atoms: _104  and  _105
REMARK   33  A    between atoms: _104  and  _107
REMARK   34  A    between atoms: _107  and  _108
REMARK   35  A    between atoms: _111  and  _113
REMARK   36  A    between atoms: _113  and  _114
REMARK   37  A    between atoms: _113  and  _116
REMARK   38  A    between atoms: _116  and  _117
REMARK   39  A    between atoms: _117  and  _118
REMARK   40  A    between atoms: _118  and  ZN_414
REMARK   41  A    between atoms: _121  and  _122
REMARK   42  A    between atoms: _127  and  _129
REMARK   43  A    between atoms: _129  and  _130
REMARK   44  A    between atoms: _129  and  _132
REMARK   45  A    between atoms: _132  and  _133
REMARK   46  A    between atoms: _139  and  _141
REMARK   47  A    between atoms: _141  and  _142
REMARK   48  A    between atoms: _141  and  _144
REMARK   49  A    between atoms: _144  and  _145
REMARK   50  A    between atoms: _145  and  _146
REMARK   51  A    between atoms: _146  and  _147
REMARK   52  A    between atoms: _156  and  _158
REMARK   53  A    between atoms: _158  and  _159
REMARK   54  A    between atoms: _158  and  _161
REMARK   55  A    between atoms: _161  and  _162
REMARK   56  A    between atoms: _167  and  _168
REMARK   57  A    between atoms: _170  and  _172
REMARK   58  A    between atoms: _172  and  _173
REMARK   59  A    between atoms: _172  and  _175
REMARK   60  A    between atoms: _175  and  _176
REMARK   61  A    between atoms: _178  and  _180
REMARK   62  A    between atoms: _180  and  _181
REMARK   63  A    between atoms: _180  and  _183
REMARK   64  A    between atoms: _183  and  _184
REMARK   65  A    between atoms: _189  and  _190
REMARK   66  A    between atoms: _192  and  _194
REMARK   67  A    between atoms: _194  and  _195
REMARK   68  A    between atoms: _194  and  _197
REMARK   69  A    between atoms: _197  and  _198
REMARK   70  A    between atoms: _201  and  _203
REMARK   71  A    between atoms: _203  and  _204
REMARK   72  A    between atoms: _203  and  _206
REMARK   73  A    between atoms: _206  and  _207
REMARK   74  A    between atoms: _210  and  _212
REMARK   75  A    between atoms: _212  and  _213
REMARK   76  A    between atoms: _212  and  _215
REMARK   77  A    between atoms: _215  and  _216
REMARK   78  A    between atoms: _219  and  _221
REMARK   79  A    between atoms: _221  and  _222
REMARK   80  A    between atoms: _221  and  _224
REMARK   81  A    between atoms: _224  and  _225
REMARK   82  A    between atoms: _231  and  _233
REMARK   83  A    between atoms: _233  and  _234
REMARK   84  A    between atoms: _233  and  _236
REMARK   85  A    between atoms: _236  and  _237
REMARK   86  A    between atoms: _242  and  _243
REMARK   87  A    between atoms: _245  and  _247
REMARK   88  A    between atoms: _247  and  _248
REMARK   89  A    between atoms: _247  and  _250
REMARK   90  A    between atoms: _250  and  _251
REMARK   91  A    between atoms: _254  and  _256
REMARK   92  A    between atoms: _256  and  _257
REMARK   93  A    between atoms: _256  and  _259
REMARK   94  A    between atoms: _259  and  _260
REMARK   95  A    between atoms: _270  and  _272
REMARK   96  A    between atoms: _272  and  _273
REMARK   97  A    between atoms: _272  and  _275
REMARK   98  A    between atoms: _275  and  _276
REMARK   99  A    between atoms: _281  and  _283
REMARK  100  A    between atoms: _283  and  _284
REMARK  101  A    between atoms: _283  and  _286
REMARK  102  A    between atoms: _286  and  _287
REMARK  103  A    between atoms: _291  and  ZN_414
REMARK  104  A    between atoms: _292  and  _294
REMARK  105  A    between atoms: _294  and  _295
REMARK  106  A    between atoms: _294  and  _297
REMARK  107  A    between atoms: _297  and  _298
REMARK  108  A    between atoms: _301  and  _303
REMARK  109  A    between atoms: _303  and  _304
REMARK  110  A    between atoms: _306  and  _308
REMARK  111  A    between atoms: _308  and  _309
REMARK  112  A    between atoms: _308  and  _311
REMARK  113  A    between atoms: _311  and  _312
REMARK  114  A    between atoms: _315  and  _317
REMARK  115  A    between atoms: _317  and  _318
REMARK  116  A    between atoms: _317  and  _320
REMARK  117  A    between atoms: _320  and  _321
REMARK  118  A    between atoms: _324  and  _326
REMARK  119  A    between atoms: _326  and  _327
REMARK  120  A    between atoms: _330  and  _332
REMARK  121  A    between atoms: _332  and  _333
REMARK  122  A    between atoms: _336  and  _338
REMARK  123  A    between atoms: _338  and  _339
REMARK  124  A    between atoms: _338  and  _341
REMARK  125  A    between atoms: _341  and  _342
REMARK  126  A    between atoms: _347  and  _348
REMARK  127  A    between atoms: _350  and  _352
REMARK  128  A    between atoms: _352  and  _353
REMARK  129  A    between atoms: _352  and  _355
REMARK  130  A    between atoms: _355  and  _356
REMARK  131  A    between atoms: _359  and  _361
REMARK  132  A    between atoms: _361  and  _362
REMARK  133  A    between atoms: _361  and  _364
REMARK  134  A    between atoms: _364  and  _365
REMARK  135  A    between atoms: _368  and  _370
REMARK  136  A    between atoms: _370  and  _371
REMARK  137  A    between atoms: _370  and  _373
REMARK  138  A    between atoms: _373  and  _374
REMARK  139  A    between atoms: _374  and  _375
REMARK  140  A    between atoms: _378  and  _380
REMARK  141  A    between atoms: _380  and  _381
REMARK  142  A    between atoms: _380  and  _383
REMARK  143  A    between atoms: _383  and  _384
REMARK  144  A    between atoms: _384  and  _385
REMARK  145  A    between atoms: _385  and  _386
REMARK  146  A    between atoms: _395  and  _397
REMARK  147  A    between atoms: _397  and  _398
REMARK  148  A    between atoms: _400  and  _402
REMARK  149  A    between atoms: _402  and  _403
REMARK  150  A    between atoms: _402  and  _405
REMARK  151  A    between atoms: _405  and  _406
REMARK  152  A    between atoms: _409  and  _411
REMARK  153  A    between atoms: _411  and  _412
REMARK                            x       y       z     vdW  Elec       q    Type
REMARK                         _______ _______ _______ _____ _____    ______ ____
ROOT
ATOM      1  C   THR A   1      33.374  72.233   2.567  0.00  0.00    +0.241 C 
ATOM      2  O   THR A   1      32.807  72.145   3.657  0.00  0.00    -0.274 OA
ATOM      3  N   ALA A   2      34.517  72.895   2.410  0.00  0.00    -0.298 N 
ATOM      4  H   ALA A   2      34.946  72.955   1.465  0.00  0.00    +0.150 HD
ENDROOT
BRANCH   3   5
ATOM      5  CA  ALA A   2      35.183  73.542   3.545  0.00  0.00    +0.137 C 
ATOM      6  CB  ALA A   2      36.696  73.326   3.462  0.00  0.00    +0.030 C 
BRANCH   5   7
ATOM      7  C   ALA A   2      34.878  75.037   3.597  0.00  0.00    +0.227 C 
ATOM      8  O   ALA A   2      34.396  75.614   2.623  0.00  0.00    -0.286 OA
ENDBRANCH   5   7
ENDBRANCH   3   5
BRANCH   1   9
ATOM      9  CA  THR A   1      32.757  71.593   1.320  0.00  0.00    +0.172 C 
BRANCH   9  10
ATOM     10  N   THR A   1      33.678  71.409   0.201  0.00  0.00    -0.236 NA
ATOM     11  H   THR A   1      34.457  70.724   0.282  0.00  0.00    +0.142 HD
ENDBRANCH   9  10
BRANCH   9  12
ATOM     12  CB  THR A   1      32.099  70.246   1.732  0.00  0.00    +0.135 C 
ATOM     13  CG2 THR A   1      31.203  69.725   0.610  0.00  0.00    +0.034 C 
BRANCH  12  14
ATOM     14  OG1 THR A   1      33.117  69.278   2.020  0.00  0.00    -0.383 OA
ATOM     15  HG1 THR A   1      33.675  69.138   1.214  0.00  0.00    +0.210 HD
ENDBRANCH  12  14
ENDBRANCH   9  12
ENDBRANCH   1   9
TORSDOF 6
REMARK  Name = ../refined-set-2016/1ps3/1ps3_pocket.pdb
REMARK  153 active torsions:
REMARK  status: ('A' for Active; 'I' for Inactive)
REMARK    1  A    between atoms: _1  and  _3
REMARK    2  A    between atoms: _14  and  _17
REMARK    3  A    between atoms: _17  and  _18
REMARK    4  A    between atoms: _25  and  _26
REMARK    5  A    between atoms: _33  and  _34
REMARK    6  A    between atoms: _39  and  _41
REMARK    7  A    between atoms: _41  and  _42
REMARK    8  A    between atoms: _44  and  _46
REMARK    9  A    between atoms: _46  and  _47
REMARK   10  A    between atoms: _46  and  _49
REMARK   11  A    between atoms: _49  and  _50
REMARK   12  A    between atoms: _60  and  _62
REMARK   13  A    between atoms: _62  and  _63
REMARK   14  A    between atoms: _62  and  _65
REMARK   15  A    between atoms: _65  and  _66
REMARK   16  A    between atoms: _69  and  _71
REMARK   17  A    between atoms: _71  and  _72
REMARK   18  A    between atoms: _71  and  _74
REMARK   19  A    between atoms: _74  and  _75
REMARK   20  A    between atoms: _80  and  _81
REMARK   21  A    between atoms: _83  and  _85
REMARK   22  A    between atoms: _85  and  _86
REMARK   23  A    between atoms: _85  and  _88
REMARK   24  A    between atoms: _88  and  _89
REMARK   25  A    between atoms: _89  and  _90
REMARK   26  A    between atoms: _93  and  _95
REMARK   27  A    between atoms: _95  and  _96
REMARK   28  A    between atoms: _95  and  _98
REMARK   29  A    between atoms: _98  and  _99
REMARK   30  A    between atoms: _99  and  _100
REMARK   31  A    between atoms: _102  and  _104
REMARK   32  A    between atoms: _104  and  _105
REMARK   33  A    between atoms: _104  and  _107
REMARK   34  A    between atoms: _107  and  _108
REMARK   35  A    between atoms: _111  and  _113
REMARK   36  A    between atoms: _113  and  _114
REMARK   37  A    between atoms: _113  and  _116
REMARK   38  A    between atoms: _116  and  _117
REMARK   39  A    between atoms: _117  and  _118
REMARK   40  A    between atoms: _118  and  ZN_414
REMARK   41  A    between atoms: _121  and  _122
REMARK   42  A    between atoms: _127  and  _129
REMARK   43  A    between atoms: _129  and  _130
REMARK   44  A    between atoms: _129  and  _132
REMARK   45  A    between atoms: _132  and  _133
REMARK   46  A    between atoms: _139  and  _141
REMARK   47  A    between atoms: _141  and  _142
REMARK   48  A    between atoms: _141  and  _144
REMARK   49  A    between atoms: _144  and  _145
REMARK   50  A    between atoms: _145  and  _146
REMARK   51  A    between atoms: _146  and  _147
REMARK   52  A    between atoms: _156  and  _158
REMARK   53  A    between atoms: _158  and  _159
REMARK   54  A    between atoms: _158  and  _161
REMARK   55  A    between atoms: _161  and  _162
REMARK   56  A    between atoms: _167  and  _168
REMARK   57  A    between atoms: _170  and  _172
REMARK   58  A    between atoms: _172  and  _173
REMARK   59  A    between atoms: _172  and  _175
REMARK   60  A    between atoms: _175  and  _176
REMARK   61  A    between atoms: _178  and  _180
REMARK   62  A    between atoms: _180  and  _181
REMARK   63  A    between atoms: _180  and  _183
REMARK   64  A    between atoms: _183  and  _184
REMARK   65  A    between atoms: _189  and  _190
REMARK   66  A    between atoms: _192  and  _194
REMARK   67  A    between atoms: _194  and  _195
REMARK   68  A    between atoms: _194  and  _197
REMARK   69  A    between atoms: _197  and  _198
REMARK   70  A    between atoms: _201  and  _203
REMARK   71  A    between atoms: _203  and  _204
REMARK   72  A    between atoms: _203  and  _206
REMARK   73  A    between atoms: _206  and  _207
REMARK   74  A    between atoms: _210  and  _212
REMARK   75  A    between atoms: _212  and  _213
REMARK   76  A    between atoms: _212  and  _215
REMARK   77  A    between atoms: _215  and  _216
REMARK   78  A    between atoms: _219  and  _221
REMARK   79  A    between atoms: _221  and  _222
REMARK   80  A    between atoms: _221  and  _224
REMARK   81  A    between atoms: _224  and  _225
REMARK   82  A    between atoms: _231  and  _233
REMARK   83  A    between atoms: _233  and  _234
REMARK   84  A    between atoms: _233  and  _236
REMARK   85  A    between atoms: _236  and  _237
REMARK   86  A    between atoms: _242  and  _243
REMARK   87  A    between atoms: _245  and  _247
REMARK   88  A    between atoms: _247  and  _248
REMARK   89  A    between atoms: _247  and  _250
REMARK   90  A    between atoms: _250  and  _251
REMARK   91  A    between atoms: _254  and  _256
REMARK   92  A    between atoms: _256  and  _257
REMARK   93  A    between atoms: _256  and  _259
REMARK   94  A    between atoms: _259  and  _260
REMARK   95  A    between atoms: _270  and  _272
REMARK   96  A    between atoms: _272  and  _273
REMARK   97  A    between atoms: _272  and  _275
REMARK   98  A    between atoms: _275  and  _276
REMARK   99  A    between atoms: _281  and  _283
REMARK  100  A    between atoms: _283  and  _284
REMARK  101  A    between atoms: _283  and  _286
REMARK  102  A    between atoms: _286  and  _287
REMARK  103  A    between atoms: _291  and  ZN_414
REMARK  104  A    between atoms: _292  and  _294
REMARK  105  A    between atoms: _294  and  _295
REMARK  106  A    between atoms: _294  and  _297
REMARK  107  A    between atoms: _297  and  _298
REMARK  108  A    between atoms: _301  and  _303
REMARK  109  A    between atoms: _303  and  _304
REMARK  110  A    between atoms: _306  and  _308
REMARK  111  A    between atoms: _308  and  _309
REMARK  112  A    between atoms: _308  and  _311
REMARK  113  A    between atoms: _311  and  _312
REMARK  114  A    between atoms: _315  and  _317
REMARK  115  A    between atoms: _317  and  _318
REMARK  116  A    between atoms: _317  and  _320
REMARK  117  A    between atoms: _320  and  _321
REMARK  118  A    between atoms: _324  and  _326
REMARK  119  A    between atoms: _326  and  _327
REMARK  120  A    between atoms: _330  and  _332
REMARK  121  A    between atoms: _332  and  _333
REMARK  122  A    between atoms: _336  and  _338
REMARK  123  A    between atoms: _338  and  _339
REMARK  124  A    between atoms: _338  and  _341
REMARK  125  A    between atoms: _341  and  _342
REMARK  126  A    between atoms: _347  and  _348
REMARK  127  A    between atoms: _350  and  _352
REMARK  128  A    between atoms: _352  and  _353
REMARK  129  A    between atoms: _352  and  _355
REMARK  130  A    between atoms: _355  and  _356
REMARK  131  A    between atoms: _359  and  _361
REMARK  132  A    between atoms: _361  and  _362
REMARK  133  A    between atoms: _361  and  _364
REMARK  134  A    between atoms: _364  and  _365
REMARK  135  A    between atoms: _368  and  _370
REMARK  136  A    between atoms: _370  and  _371
REMARK  137  A    between atoms: _370  and  _373
REMARK  138  A    between atoms: _373  and  _374
REMARK  139  A    between atoms: _374  and  _375
REMARK  140  A    between atoms: _378  and  _380
REMARK  141  A    between atoms: _380  and  _381
REMARK  142  A    between atoms: _380  and  _383
REMARK  143  A    between atoms: _383  and  _384
REMARK  144  A    between atoms: _384  and  _385
REMARK  145  A    between atoms: _385  and  _386
REMARK  146  A    between atoms: _395  and  _397
REMARK  147  A    between atoms: _397  and  _398
REMARK  148  A    between atoms: _400  and  _402
REMARK  149  A    between atoms: _402  and  _403
REMARK  150  A    between atoms: _402  and  _405
REMARK  151  A    between atoms: _405  and  _406
REMARK  152  A    between atoms: _409  and  _411
REMARK  153  A    between atoms: _411  and  _412
REMARK                            x       y       z     vdW  Elec       q    Type
REMARK                         _______ _______ _______ _____ _____    ______ ____
ROOT
ATOM      1  CA  TYR A   2      26.718  69.580  -0.344  0.00  0.00    +0.153 C 
ENDROOT
BRANCH   1   3
ATOM      2  C   ALA A   1      27.752  71.676  -1.018  0.00  0.00    +0.238 C 
ATOM      3  N   TYR A   2      26.898  71.026  -0.228  0.00  0.00    -0.297 N 
ATOM      4  H   TYR A   2      26.352  71.555   0.481  0.00  0.00    +0.150 HD
ATOM      5  O   ALA A   1      28.417  71.109  -1.889  0.00  0.00    -0.274 OA
BRANCH   2   6
ATOM      6  CA  ALA A   1      27.886  73.185  -0.800  0.00  0.00    +0.145 C 
ATOM      7  CB  ALA A   1      29.006  73.460   0.210  0.00  0.00    +0.028 C 
BRANCH   6   8
ATOM      8  N   ALA A   1      26.642  73.803  -0.348  0.00  0.00    -0.238 NA
ATOM      9  H   ALA A   1      26.631  74.326   0.551  0.00  0.00    +0.142 HD
ENDBRANCH   6   8
ENDBRANCH   2   6
ENDBRANCH   1   3
BRANCH   1  10
ATOM     10  C   TYR A   2      25.533  69.168  -1.194  0.00  0.00    +0.241 C 
ATOM     11  N   LEU A   3      24.385  69.774  -0.902  0.00  0.00    -0.298 N 
ATOM     12  H   LEU A   3      24.381  70.517  -0.174  0.00  0.00    +0.150 HD
ATOM     13  O   TYR A   2      25.652  68.313  -2.075  0.00  0.00    -0.273 OA
BRANCH  11  14
ATOM     14  CA  LEU A   3      23.133  69.434  -1.566  0.00  0.00    +0.137 C 
BRANCH  14  15
ATOM     15  C   LEU A   3      22.768  70.184  -2.843  0.00  0.00    +0.227 C 
ATOM     16  O   LEU A   3      23.044  71.368  -2.993  0.00  0.00    -0.286 OA
ENDBRANCH  14  15
BRANCH  14  17
ATOM     17  CB  LEU A   3      21.973  69.583  -0.570  0.00  0.00    +0.028 C 
BRANCH  17  18
ATOM     18  CG  LEU A   3      22.105  68.982   0.833  0.00  0.00    +0.002 C 
ATOM     19  CD2 LEU A   3      20.784  69.150   1.582  0.00  0.00    +0.000 C 
ATOM     20  CD1 LEU A   3      22.472  67.511   0.742  0.00  0.00    +0.000 C 
ENDBRANCH  17  18
ENDBRANCH  14  17
ENDBRANCH  11  14
ENDBRANCH   1  10
BRANCH   1  21
ATOM     21  CB  TYR A   2      26.504  68.928   1.027  0.00  0.00    +0.055 C 
BRANCH  21  22
ATOM     22  CG  TYR A   2      27.558  69.202   2.067  0.00  0.00    -0.020 A 
ATOM     23  CD2 TYR A   2      27.553  70.390   2.791  0.00  0.00    -0.001 A 
ATOM     24  CE2 TYR A   2      28.490  70.623   3.796  0.00  0.00    +0.036 A 
ATOM     25  CZ  TYR A   2      29.443  69.657   4.078  0.00  0.00    +0.134 A 
ATOM     26  CE1 TYR A   2      29.474  68.470   3.366  0.00  0.00    +0.036 A 
ATOM     27  CD1 TYR A   2      28.532  68.248   2.364  0.00  0.00    -0.001 A 
BRANCH  25  28
ATOM     28  OH  TYR A   2      30.341  69.861   5.094  0.00  0.00    -0.506 OA
ATOM     29  HH  TYR A   2      30.222  69.160   5.783  0.00  0.00    +0.292 HD
ENDBRANCH  25  28
ENDBRANCH  21  22
ENDBRANCH   1  21
TORSDOF 11
REMARK  Name = ../refined-set-2016/1ps3/1ps3_pocket.pdb
REMARK  153 active torsions:
REMARK  status: ('A' for Active; 'I' for Inactive)
REMARK    1  A    between atoms: _1  and  _3
REMARK    2  A    between atoms: _14  and  _17
REMARK    3  A    between atoms: _17  and  _18
REMARK    4  A    between atoms: _25  and  _26
REMARK    5  A    between atoms: _33  and  _34
REMARK    6  A    between atoms: _39  and  _41
REMARK    7  A    between atoms: _41  and  _42
REMARK    8  A    between atoms: _44  and  _46
REMARK    9  A    between atoms: _46  and  _47
REMARK   10  A    between atoms: _46  and  _49
REMARK   11  A    between atoms: _49  and  _50
REMARK   12  A    between atoms: _60  and  _62
REMARK   13  A    between atoms: _62  and  _63
REMARK   14  A    between atoms: _62  and  _65
REMARK   15  A    between atoms: _65  and  _66
REMARK   16  A    between atoms: _69  and  _71
REMARK   17  A    between atoms: _71  and  _72
REMARK   18  A    between atoms: _71  and  _74
REMARK   19  A    between atoms: _74  and  _75
REMARK   20  A    between atoms: _80  and  _81
REMARK   21  A    between atoms: _83  and  _85
REMARK   22  A    between atoms: _85  and  _86
REMARK   23  A    between atoms: _85  and  _88
REMARK   24  A    between atoms: _88  and  _89
REMARK   25  A    between atoms: _89  and  _90
REMARK   26  A    between atoms: _93  and  _95
REMARK   27  A    between atoms: _95  and  _96
REMARK   28  A    between atoms: _95  and  _98
REMARK   29  A    between atoms: _98  and  _99
REMARK   30  A    between atoms: _99  and  _100
REMARK   31  A    between atoms: _102  and  _104
REMARK   32  A    between atoms: _104  and  _105
REMARK   33  A    between atoms: _104  and  _107
REMARK   34  A    between atoms: _107  and  _108
REMARK   35  A    between atoms: _111  and  _113
REMARK   36  A    between atoms: _113  and  _114
REMARK   37  A    between atoms: _113  and  _116
REMARK   38  A    between atoms: _116  and  _117
REMARK   39  A    between atoms: _117  and  _118
REMARK   40  A    between atoms: _118  and  ZN_414
REMARK   41  A    between atoms: _121  and  _122
REMARK   42  A    between atoms: _127  and  _129
REMARK   43  A    between atoms: _129  and  _130
REMARK   44  A    between atoms: _129  and  _132
REMARK   45  A    between atoms: _132  and  _133
REMARK   46  A    between atoms: _139  and  _141
REMARK   47  A    between atoms: _141  and  _142
REMARK   48  A    between atoms: _141  and  _144
REMARK   49  A    between atoms: _144  and  _145
REMARK   50  A    between atoms: _145  and  _146
REMARK   51  A    between atoms: _146  and  _147
REMARK   52  A    between atoms: _156  and  _158
REMARK   53  A    between atoms: _158  and  _159
REMARK   54  A    between atoms: _158  and  _161
REMARK   55  A    between atoms: _161  and  _162
REMARK   56  A    between atoms: _167  and  _168
REMARK   57  A    between atoms: _170  and  _172
REMARK   58  A    between atoms: _172  and  _173
REMARK   59  A    between atoms: _172  and  _175
REMARK   60  A    between atoms: _175  and  _176
REMARK   61  A    between atoms: _178  and  _180
REMARK   62  A    between atoms: _180  and  _181
REMARK   63  A    between atoms: _180  and  _183
REMARK   64  A    between atoms: _183  and  _184
REMARK   65  A    between atoms: _189  and  _190
REMARK   66  A    between atoms: _192  and  _194
REMARK   67  A    between atoms: _194  and  _195
REMARK   68  A    between atoms: _194  and  _197
REMARK   69  A    between atoms: _197  and  _198
REMARK   70  A    between atoms: _201  and  _203
REMARK   71  A    between atoms: _203  and  _204
REMARK   72  A    between atoms: _203  and  _206
REMARK   73  A    between atoms: _206  and  _207
REMARK   74  A    between atoms: _210  and  _212
REMARK   75  A    between atoms: _212  and  _213
REMARK   76  A    between atoms: _212  and  _215
REMARK   77  A    between atoms: _215  and  _216
REMARK   78  A    between atoms: _219  and  _221
REMARK   79  A    between atoms: _221  and  _222
REMARK   80  A    between atoms: _221  and  _224
REMARK   81  A    between atoms: _224  and  _225
REMARK   82  A    between atoms: _231  and  _233
REMARK   83  A    between atoms: _233  and  _234
REMARK   84  A    between atoms: _233  and  _236
REMARK   85  A    between atoms: _236  and  _237
REMARK   86  A    between atoms: _242  and  _243
REMARK   87  A    between atoms: _245  and  _247
REMARK   88  A    between atoms: _247  and  _248
REMARK   89  A    between atoms: _247  and  _250
REMARK   90  A    between atoms: _250  and  _251
REMARK   91  A    between atoms: _254  and  _256
REMARK   92  A    between atoms: _256  and  _257
REMARK   93  A    between atoms: _256  and  _259
REMARK   94  A    between atoms: _259  and  _260
REMARK   95  A    between atoms: _270  and  _272
REMARK   96  A    between atoms: _272  and  _273
REMARK   97  A    between atoms: _272  and  _275
REMARK   98  A    between atoms: _275  and  _276
REMARK   99  A    between atoms: _281  and  _283
REMARK  100  A    between atoms: _283  and  _284
REMARK  101  A    between atoms: _283  and  _286
REMARK  102  A    between atoms: _286  and  _287
REMARK  103  A    between atoms: _291  and  ZN_414
REMARK  104  A    between atoms: _292  and  _294
REMARK  105  A    between atoms: _294  and  _295
REMARK  106  A    between atoms: _294  and  _297
REMARK  107  A    between atoms: _297  and  _298
REMARK  108  A    between atoms: _301  and  _303
REMARK  109  A    between atoms: _303  and  _304
REMARK  110  A    between atoms: _306  and  _308
REMARK  111  A    between atoms: _308  and  _309
REMARK  112  A    between atoms: _308  and  _311
REMARK  113  A    between atoms: _311  and  _312
REMARK  114  A    between atoms: _315  and  _317
REMARK  115  A    between atoms: _317  and  _318
REMARK  116  A    between atoms: _317  and  _320
REMARK  117  A    between atoms: _320  and  _321
REMARK  118  A    between atoms: _324  and  _326
REMARK  119  A    between atoms: _326  and  _327
REMARK  120  A    between atoms: _330  and  _332
REMARK  121  A    between atoms: _332  and  _333
REMARK  122  A    between atoms: _336  and  _338
REMARK  123  A    between atoms: _338  and  _339
REMARK  124  A    between atoms: _338  and  _341
REMARK  125  A    between atoms: _341  and  _342
REMARK  126  A    between atoms: _347  and  _348
REMARK  127  A    between atoms: _350  and  _352
REMARK  128  A    between atoms: _352  and  _353
REMARK  129  A    between atoms: _352  and  _355
REMARK  130  A    between atoms: _355  and  _356
REMARK  131  A    between atoms: _359  and  _361
REMARK  132  A    between atoms: _361  and  _362
REMARK  133  A    between atoms: _361  and  _364
REMARK  134  A    between atoms: _364  and  _365
REMARK  135  A    between atoms: _368  and  _370
REMARK  136  A    between atoms: _370  and  _371
REMARK  137  A    between atoms: _370  and  _373
REMARK  138  A    between atoms: _373  and  _374
REMARK  139  A    between atoms: _374  and  _375
REMARK  140  A    between atoms: _378  and  _380
REMARK  141  A    between atoms: _380  and  _381
REMARK  142  A    between atoms: _380  and  _383
REMARK  143  A    between atoms: _383  and  _384
REMARK  144  A    between atoms: _384  and  _385
REMARK  145  A    between atoms: _385  and  _386
REMARK  146  A    between atoms: _395  and  _397
REMARK  147  A    between atoms: _397  and  _398
REMARK  148  A    between atoms: _400  and  _402
REMARK  149  A    between atoms: _402  and  _403
REMARK  150  A    between atoms: _402  and  _405
REMARK  151  A    between atoms: _405  and  _406
REMARK  152  A    between atoms: _409  and  _411
REMARK  153  A    between atoms: _411  and  _412
REMARK                            x       y       z     vdW  Elec       q    Type
REMARK                         _______ _______ _______ _____ _____    ______ ____
ROOT
ATOM      1  CA  ARG A   3      25.229  69.842   6.949  0.00  0.00    +0.149 C 
ENDROOT
BRANCH   1   4
ATOM      2  C   GLU A   2      23.180  71.046   7.356  0.00  0.00    +0.241 C 
ATOM      3  O   GLU A   2      22.749  70.118   8.053  0.00  0.00    -0.273 OA
ATOM      4  N   ARG A   3      24.372  71.008   6.777  0.00  0.00    -0.297 N 
ATOM      5  H   ARG A   3      24.696  71.810   6.200  0.00  0.00    +0.150 HD
BRANCH   2   6
ATOM      6  CA  GLU A   2      22.348  72.308   7.153  0.00  0.00    +0.149 C 
BRANCH   6   8
ATOM      7  C   ASP A   1      22.307  72.473   4.710  0.00  0.00    +0.239 C 
ATOM      8  N   GLU A   2      22.455  73.045   5.899  0.00  0.00    -0.297 N 
ATOM      9  H   GLU A   2      22.656  74.065   5.938  0.00  0.00    +0.150 HD
ATOM     10  O   ASP A   1      22.159  71.264   4.558  0.00  0.00    -0.274 OA
BRANCH   7  11
ATOM     11  CA  ASP A   1      22.366  73.421   3.515  0.00  0.00    +0.156 C 
BRANCH  11  12
ATOM     12  N   ASP A   1      23.261  74.550   3.729  0.00  0.00    -0.238 NA
ATOM     13  H   ASP A   1      24.291  74.415   3.674  0.00  0.00    +0.142 HD
ENDBRANCH  11  12
BRANCH  11  14
ATOM     14  CB  ASP A   1      22.730  72.660   2.230  0.00  0.00    +0.140 C 
BRANCH  14  15
ATOM     15  CG  ASP A   1      24.208  72.357   2.122  0.00  0.00    +0.367 C 
ATOM     16  OD2 ASP A   1      24.962  72.663   3.070  0.00  0.00    -0.246 OA
ATOM     17  OD1 ASP A   1      24.615  71.811   1.077  0.00  0.00    -0.246 OA
ENDBRANCH  14  15
ENDBRANCH  11  14
ENDBRANCH   7  11
ENDBRANCH   6   8
BRANCH   6  18
ATOM     18  CB  GLU A   2      20.872  71.987   7.402  0.00  0.00    +0.041 C 
BRANCH  18  19
ATOM     19  CG  GLU A   2      19.998  73.231   7.394  0.00  0.00    +0.116 C 
BRANCH  19  20
ATOM     20  CD  GLU A   2      18.609  72.998   7.969  0.00  0.00    +0.365 C 
ATOM     21  OE2 GLU A   2      18.502  72.645   9.165  0.00  0.00    -0.246 OA
ATOM     22  OE1 GLU A   2      17.619  73.178   7.229  0.00  0.00    -0.246 OA
ENDBRANCH  19  20
ENDBRANCH  18  19
ENDBRANCH   6  18
ENDBRANCH   2   6
ENDBRANCH   1   4
BRANCH   1  23
ATOM     23  C   ARG A   3      26.509  70.181   7.715  0.00  0.00    +0.241 C 
ATOM     24  N   GLY A   4      26.458  71.277   8.473  0.00  0.00    -0.295 N 
ATOM     25  H   GLY A   4      25.590  71.850   8.483  0.00  0.00    +0.150 HD
ATOM     26  O   ARG A   3      27.519  69.475   7.609  0.00  0.00    -0.273 OA
BRANCH  24  27
ATOM     27  CA  GLY A   4      27.591  71.687   9.285  0.00  0.00    +0.176 C 
BRANCH  27  28
ATOM     28  C   GLY A   4      28.556  72.749   8.778  0.00  0.00    +0.243 C 
ATOM     29  O   GLY A   4      29.336  73.282   9.567  0.00  0.00    -0.273 OA
ATOM     30  N   LEU A   5      28.518  73.073   7.488  0.00  0.00    -0.297 N 
ATOM     31  H   LEU A   5      27.825  72.613   6.864  0.00  0.00    +0.150 HD
BRANCH  30  32
ATOM     32  CA  LEU A   5      29.441  74.070   6.934  0.00  0.00    +0.149 C 
BRANCH  32  33
ATOM     33  C   LEU A   5      29.239  75.476   7.497  0.00  0.00    +0.241 C 
ATOM     34  N   GLY A   6      27.987  75.853   7.737  0.00  0.00    -0.296 N 
ATOM     35  H   GLY A   6      27.202  75.204   7.526  0.00  0.00    +0.150 HD
ATOM     36  O   LEU A   5      30.207  76.209   7.707  0.00  0.00    -0.273 OA
BRANCH  34  37
ATOM     37  CA  GLY A   6      27.709  77.169   8.294  0.00  0.00    +0.163 C 
BRANCH  37  38
ATOM     38  C   GLY A   6      27.824  78.337   7.326  0.00  0.00    +0.229 C 
ATOM     39  O   GLY A   6      27.943  79.487   7.745  0.00  0.00    -0.286 OA
ENDBRANCH  37  38
ENDBRANCH  34  37
ENDBRANCH  32  33
BRANCH  32  40
ATOM     40  CB  LEU A   5      29.341  74.096   5.403  0.00  0.00    +0.029 C 
BRANCH  40  41
ATOM     41  CG  LEU A   5      30.230  75.087   4.641  0.00  0.00    +0.002 C 
ATOM     42  CD2 LEU A   5      31.682  74.977   5.092  0.00  0.00    +0.000 C 
ATOM     43  CD1 LEU A   5      30.112  74.808   3.157  0.00  0.00    +0.000 C 
ENDBRANCH  40  41
ENDBRANCH  32  40
ENDBRANCH  30  32
ENDBRANCH  27  28
ENDBRANCH  24  27
ENDBRANCH   1  23
BRANCH   1  44
ATOM     44  CB  ARG A   3      25.549  69.212   5.590  0.00  0.00    +0.033 C 
BRANCH  44  45
ATOM     45  CG  ARG A   3      24.326  68.616   4.904  0.00  0.00    +0.045 C 
BRANCH  45  46
ATOM     46  CD  ARG A   3      23.675  67.569   5.801  0.00  0.00    +0.174 C 
BRANCH  46  47
ATOM     47  NE  ARG A   3      22.554  66.873   5.173  0.00  0.00    -0.265 N 
ATOM     48  CZ  ARG A   3      21.368  67.423   4.933  0.00  0.00    +0.342 C 
ATOM     49  NH2 ARG A   3      21.142  68.686   5.261  0.00  0.00    -0.292 N 
ATOM     50 HH21 ARG A   3      21.893  69.250   5.707  0.00  0.00    +0.255 HD
ATOM     51 HH22 ARG A   3      20.213  69.114   5.072  0.00  0.00    +0.255 HD
ATOM     52  NH1 ARG A   3      20.398  66.700   4.389  0.00  0.00    -0.292 N 
ATOM     53 HH11 ARG A   3      19.470  67.131   4.202  0.00  0.00    +0.255 HD
ATOM     54 HH12 ARG A   3      20.565  65.702   4.150  0.00  0.00    +0.255 HD
ATOM     55  HE  ARG A   3      22.694  65.881   4.895  0.00  0.00    +0.259 HD
ENDBRANCH  46  47
ENDBRANCH  45  46
ENDBRANCH  44  45
ENDBRANCH   1  44
TORSDOF 23
REMARK  Name = ../refined-set-2016/1ps3/1ps3_pocket.pdb
REMARK  153 active torsions:
REMARK  status: ('A' for Active; 'I' for Inactive)
REMARK    1  A    between atoms: _1  and  _3
REMARK    2  A    between atoms: _14  and  _17
REMARK    3  A    between atoms: _17  and  _18
REMARK    4  A    between atoms: _25  and  _26
REMARK    5  A    between atoms: _33  and  _34
REMARK    6  A    between atoms: _39  and  _41
REMARK    7  A    between atoms: _41  and  _42
REMARK    8  A    between atoms: _44  and  _46
REMARK    9  A    between atoms: _46  and  _47
REMARK   10  A    between atoms: _46  and  _49
REMARK   11  A    between atoms: _49  and  _50
REMARK   12  A    between atoms: _60  and  _62
REMARK   13  A    between atoms: _62  and  _63
REMARK   14  A    between atoms: _62  and  _65
REMARK   15  A    between atoms: _65  and  _66
REMARK   16  A    between atoms: _69  and  _71
REMARK   17  A    between atoms: _71  and  _72
REMARK   18  A    between atoms: _71  and  _74
REMARK   19  A    between atoms: _74  and  _75
REMARK   20  A    between atoms: _80  and  _81
REMARK   21  A    between atoms: _83  and  _85
REMARK   22  A    between atoms: _85  and  _86
REMARK   23  A    between atoms: _85  and  _88
REMARK   24  A    between atoms: _88  and  _89
REMARK   25  A    between atoms: _89  and  _90
REMARK   26  A    between atoms: _93  and  _95
REMARK   27  A    between atoms: _95  and  _96
REMARK   28  A    between atoms: _95  and  _98
REMARK   29  A    between atoms: _98  and  _99
REMARK   30  A    between atoms: _99  and  _100
REMARK   31  A    between atoms: _102  and  _104
REMARK   32  A    between atoms: _104  and  _105
REMARK   33  A    between atoms: _104  and  _107
REMARK   34  A    between atoms: _107  and  _108
REMARK   35  A    between atoms: _111  and  _113
REMARK   36  A    between atoms: _113  and  _114
REMARK   37  A    between atoms: _113  and  _116
REMARK   38  A    between atoms: _116  and  _117
REMARK   39  A    between atoms: _117  and  _118
REMARK   40  A    between atoms: _118  and  ZN_414
REMARK   41  A    between atoms: _121  and  _122
REMARK   42  A    between atoms: _127  and  _129
REMARK   43  A    between atoms: _129  and  _130
REMARK   44  A    between atoms: _129  and  _132
REMARK   45  A    between atoms: _132  and  _133
REMARK   46  A    between atoms: _139  and  _141
REMARK   47  A    between atoms: _141  and  _142
REMARK   48  A    between atoms: _141  and  _144
REMARK   49  A    between atoms: _144  and  _145
REMARK   50  A    between atoms: _145  and  _146
REMARK   51  A    between atoms: _146  and  _147
REMARK   52  A    between atoms: _156  and  _158
REMARK   53  A    between atoms: _158  and  _159
REMARK   54  A    between atoms: _158  and  _161
REMARK   55  A    between atoms: _161  and  _162
REMARK   56  A    between atoms: _167  and  _168
REMARK   57  A    between atoms: _170  and  _172
REMARK   58  A    between atoms: _172  and  _173
REMARK   59  A    between atoms: _172  and  _175
REMARK   60  A    between atoms: _175  and  _176
REMARK   61  A    between atoms: _178  and  _180
REMARK   62  A    between atoms: _180  and  _181
REMARK   63  A    between atoms: _180  and  _183
REMARK   64  A    between atoms: _183  and  _184
REMARK   65  A    between atoms: _189  and  _190
REMARK   66  A    between atoms: _192  and  _194
REMARK   67  A    between atoms: _194  and  _195
REMARK   68  A    between atoms: _194  and  _197
REMARK   69  A    between atoms: _197  and  _198
REMARK   70  A    between atoms: _201  and  _203
REMARK   71  A    between atoms: _203  and  _204
REMARK   72  A    between atoms: _203  and  _206
REMARK   73  A    between atoms: _206  and  _207
REMARK   74  A    between atoms: _210  and  _212
REMARK   75  A    between atoms: _212  and  _213
REMARK   76  A    between atoms: _212  and  _215
REMARK   77  A    between atoms: _215  and  _216
REMARK   78  A    between atoms: _219  and  _221
REMARK   79  A    between atoms: _221  and  _222
REMARK   80  A    between atoms: _221  and  _224
REMARK   81  A    between atoms: _224  and  _225
REMARK   82  A    between atoms: _231  and  _233
REMARK   83  A    between atoms: _233  and  _234
REMARK   84  A    between atoms: _233  and  _236
REMARK   85  A    between atoms: _236  and  _237
REMARK   86  A    between atoms: _242  and  _243
REMARK   87  A    between atoms: _245  and  _247
REMARK   88  A    between atoms: _247  and  _248
REMARK   89  A    between atoms: _247  and  _250
REMARK   90  A    between atoms: _250  and  _251
REMARK   91  A    between atoms: _254  and  _256
REMARK   92  A    between atoms: _256  and  _257
REMARK   93  A    between atoms: _256  and  _259
REMARK   94  A    between atoms: _259  and  _260
REMARK   95  A    between atoms: _270  and  _272
REMARK   96  A    between atoms: _272  and  _273
REMARK   97  A    between atoms: _272  and  _275
REMARK   98  A    between atoms: _275  and  _276
REMARK   99  A    between atoms: _281  and  _283
REMARK  100  A    between atoms: _283  and  _284
REMARK  101  A    between atoms: _283  and  _286
REMARK  102  A    between atoms: _286  and  _287
REMARK  103  A    between atoms: _291  and  ZN_414
REMARK  104  A    between atoms: _292  and  _294
REMARK  105  A    between atoms: _294  and  _295
REMARK  106  A    between atoms: _294  and  _297
REMARK  107  A    between atoms: _297  and  _298
REMARK  108  A    between atoms: _301  and  _303
REMARK  109  A    between atoms: _303  and  _304
REMARK  110  A    between atoms: _306  and  _308
REMARK  111  A    between atoms: _308  and  _309
REMARK  112  A    between atoms: _308  and  _311
REMARK  113  A    between atoms: _311  and  _312
REMARK  114  A    between atoms: _315  and  _317
REMARK  115  A    between atoms: _317  and  _318
REMARK  116  A    between atoms: _317  and  _320
REMARK  117  A    between atoms: _320  and  _321
REMARK  118  A    between atoms: _324  and  _326
REMARK  119  A    between atoms: _326  and  _327
REMARK  120  A    between atoms: _330  and  _332
REMARK  121  A    between atoms: _332  and  _333
REMARK  122  A    between atoms: _336  and  _338
REMARK  123  A    between atoms: _338  and  _339
REMARK  124  A    between atoms: _338  and  _341
REMARK  125  A    between atoms: _341  and  _342
REMARK  126  A    between atoms: _347  and  _348
REMARK  127  A    between atoms: _350  and  _352
REMARK  128  A    between atoms: _352  and  _353
REMARK  129  A    between atoms: _352  and  _355
REMARK  130  A    between atoms: _355  and  _356
REMARK  131  A    between atoms: _359  and  _361
REMARK  132  A    between atoms: _361  and  _362
REMARK  133  A    between atoms: _361  and  _364
REMARK  134  A    between atoms: _364  and  _365
REMARK  135  A    between atoms: _368  and  _370
REMARK  136  A    between atoms: _370  and  _371
REMARK  137  A    between atoms: _370  and  _373
REMARK  138  A    between atoms: _373  and  _374
REMARK  139  A    between atoms: _374  and  _375
REMARK  140  A    between atoms: _378  and  _380
REMARK  141  A    between atoms: _380  and  _381
REMARK  142  A    between atoms: _380  and  _383
REMARK  143  A    between atoms: _383  and  _384
REMARK  144  A    between atoms: _384  and  _385
REMARK  145  A    between atoms: _385  and  _386
REMARK  146  A    between atoms: _395  and  _397
REMARK  147  A    between atoms: _397  and  _398
REMARK  148  A    between atoms: _400  and  _402
REMARK  149  A    between atoms: _402  and  _403
REMARK  150  A    between atoms: _402  and  _405
REMARK  151  A    between atoms: _405  and  _406
REMARK  152  A    between atoms: _409  and  _411
REMARK  153  A    between atoms: _411  and  _412
REMARK                            x       y       z     vdW  Elec       q    Type
REMARK                         _______ _______ _______ _____ _____    ______ ____
ROOT
ATOM      1  O   HOH     1      33.201  62.791   0.102  0.00  0.00    +0.000 OA
ENDROOT
TORSDOF 0
REMARK  Name = ../refined-set-2016/1ps3/1ps3_pocket.pdb
REMARK  153 active torsions:
REMARK  status: ('A' for Active; 'I' for Inactive)
REMARK    1  A    between atoms: _1  and  _3
REMARK    2  A    between atoms: _14  and  _17
REMARK    3  A    between atoms: _17  and  _18
REMARK    4  A    between atoms: _25  and  _26
REMARK    5  A    between atoms: _33  and  _34
REMARK    6  A    between atoms: _39  and  _41
REMARK    7  A    between atoms: _41  and  _42
REMARK    8  A    between atoms: _44  and  _46
REMARK    9  A    between atoms: _46  and  _47
REMARK   10  A    between atoms: _46  and  _49
REMARK   11  A    between atoms: _49  and  _50
REMARK   12  A    between atoms: _60  and  _62
REMARK   13  A    between atoms: _62  and  _63
REMARK   14  A    between atoms: _62  and  _65
REMARK   15  A    between atoms: _65  and  _66
REMARK   16  A    between atoms: _69  and  _71
REMARK   17  A    between atoms: _71  and  _72
REMARK   18  A    between atoms: _71  and  _74
REMARK   19  A    between atoms: _74  and  _75
REMARK   20  A    between atoms: _80  and  _81
REMARK   21  A    between atoms: _83  and  _85
REMARK   22  A    between atoms: _85  and  _86
REMARK   23  A    between atoms: _85  and  _88
REMARK   24  A    between atoms: _88  and  _89
REMARK   25  A    between atoms: _89  and  _90
REMARK   26  A    between atoms: _93  and  _95
REMARK   27  A    between atoms: _95  and  _96
REMARK   28  A    between atoms: _95  and  _98
REMARK   29  A    between atoms: _98  and  _99
REMARK   30  A    between atoms: _99  and  _100
REMARK   31  A    between atoms: _102  and  _104
REMARK   32  A    between atoms: _104  and  _105
REMARK   33  A    between atoms: _104  and  _107
REMARK   34  A    between atoms: _107  and  _108
REMARK   35  A    between atoms: _111  and  _113
REMARK   36  A    between atoms: _113  and  _114
REMARK   37  A    between atoms: _113  and  _116
REMARK   38  A    between atoms: _116  and  _117
REMARK   39  A    between atoms: _117  and  _118
REMARK   40  A    between atoms: _118  and  ZN_414
REMARK   41  A    between atoms: _121  and  _122
REMARK   42  A    between atoms: _127  and  _129
REMARK   43  A    between atoms: _129  and  _130
REMARK   44  A    between atoms: _129  and  _132
REMARK   45  A    between atoms: _132  and  _133
REMARK   46  A    between atoms: _139  and  _141
REMARK   47  A    between atoms: _141  and  _142
REMARK   48  A    between atoms: _141  and  _144
REMARK   49  A    between atoms: _144  and  _145
REMARK   50  A    between atoms: _145  and  _146
REMARK   51  A    between atoms: _146  and  _147
REMARK   52  A    between atoms: _156  and  _158
REMARK   53  A    between atoms: _158  and  _159
REMARK   54  A    between atoms: _158  and  _161
REMARK   55  A    between atoms: _161  and  _162
REMARK   56  A    between atoms: _167  and  _168
REMARK   57  A    between atoms: _170  and  _172
REMARK   58  A    between atoms: _172  and  _173
REMARK   59  A    between atoms: _172  and  _175
REMARK   60  A    between atoms: _175  and  _176
REMARK   61  A    between atoms: _178  and  _180
REMARK   62  A    between atoms: _180  and  _181
REMARK   63  A    between atoms: _180  and  _183
REMARK   64  A    between atoms: _183  and  _184
REMARK   65  A    between atoms: _189  and  _190
REMARK   66  A    between atoms: _192  and  _194
REMARK   67  A    between atoms: _194  and  _195
REMARK   68  A    between atoms: _194  and  _197
REMARK   69  A    between atoms: _197  and  _198
REMARK   70  A    between atoms: _201  and  _203
REMARK   71  A    between atoms: _203  and  _204
REMARK   72  A    between atoms: _203  and  _206
REMARK   73  A    between atoms: _206  and  _207
REMARK   74  A    between atoms: _210  and  _212
REMARK   75  A    between atoms: _212  and  _213
REMARK   76  A    between atoms: _212  and  _215
REMARK   77  A    between atoms: _215  and  _216
REMARK   78  A    between atoms: _219  and  _221
REMARK   79  A    between atoms: _221  and  _222
REMARK   80  A    between atoms: _221  and  _224
REMARK   81  A    between atoms: _224  and  _225
REMARK   82  A    between atoms: _231  and  _233
REMARK   83  A    between atoms: _233  and  _234
REMARK   84  A    between atoms: _233  and  _236
REMARK   85  A    between atoms: _236  and  _237
REMARK   86  A    between atoms: _242  and  _243
REMARK   87  A    between atoms: _245  and  _247
REMARK   88  A    between atoms: _247  and  _248
REMARK   89  A    between atoms: _247  and  _250
REMARK   90  A    between atoms: _250  and  _251
REMARK   91  A    between atoms: _254  and  _256
REMARK   92  A    between atoms: _256  and  _257
REMARK   93  A    between atoms: _256  and  _259
REMARK   94  A    between atoms: _259  and  _260
REMARK   95  A    between atoms: _270  and  _272
REMARK   96  A    between atoms: _272  and  _273
REMARK   97  A    between atoms: _272  and  _275
REMARK   98  A    between atoms: _275  and  _276
REMARK   99  A    between atoms: _281  and  _283
REMARK  100  A    between atoms: _283  and  _284
REMARK  101  A    between atoms: _283  and  _286
REMARK  102  A    between atoms: _286  and  _287
REMARK  103  A    between atoms: _291  and  ZN_414
REMARK  104  A    between atoms: _292  and  _294
REMARK  105  A    between atoms: _294  and  _295
REMARK  106  A    between atoms: _294  and  _297
REMARK  107  A    between atoms: _297  and  _298
REMARK  108  A    between atoms: _301  and  _303
REMARK  109  A    between atoms: _303  and  _304
REMARK  110  A    between atoms: _306  and  _308
REMARK  111  A    between atoms: _308  and  _309
REMARK  112  A    between atoms: _308  and  _311
REMARK  113  A    between atoms: _311  and  _312
REMARK  114  A    between atoms: _315  and  _317
REMARK  115  A    between atoms: _317  and  _318
REMARK  116  A    between atoms: _317  and  _320
REMARK  117  A    between atoms: _320  and  _321
REMARK  118  A    between atoms: _324  and  _326
REMARK  119  A    between atoms: _326  and  _327
REMARK  120  A    between atoms: _330  and  _332
REMARK  121  A    between atoms: _332  and  _333
REMARK  122  A    between atoms: _336  and  _338
REMARK  123  A    between atoms: _338  and  _339
REMARK  124  A    between atoms: _338  and  _341
REMARK  125  A    between atoms: _341  and  _342
REMARK  126  A    between atoms: _347  and  _348
REMARK  127  A    between atoms: _350  and  _352
REMARK  128  A    between atoms: _352  and  _353
REMARK  129  A    between atoms: _352  and  _355
REMARK  130  A    between atoms: _355  and  _356
REMARK  131  A    between atoms: _359  and  _361
REMARK  132  A    between atoms: _361  and  _362
REMARK  133  A    between atoms: _361  and  _364
REMARK  134  A    between atoms: _364  and  _365
REMARK  135  A    between atoms: _368  and  _370
REMARK  136  A    between atoms: _370  and  _371
REMARK  137  A    between atoms: _370  and  _373
REMARK  138  A    between atoms: _373  and  _374
REMARK  139  A    between atoms: _374  and  _375
REMARK  140  A    between atoms: _378  and  _380
REMARK  141  A    between atoms: _380  and  _381
REMARK  142  A    between atoms: _380  and  _383
REMARK  143  A    between atoms: _383  and  _384
REMARK  144  A    between atoms: _384  and  _385
REMARK  145  A    between atoms: _385  and  _386
REMARK  146  A    between atoms: _395  and  _397
REMARK  147  A    between atoms: _397  and  _398
REMARK  148  A    between atoms: _400  and  _402
REMARK  149  A    between atoms: _402  and  _403
REMARK  150  A    between atoms: _402  and  _405
REMARK  151  A    between atoms: _405  and  _406
REMARK  152  A    between atoms: _409  and  _411
REMARK  153  A    between atoms: _411  and  _412
REMARK                            x       y       z     vdW  Elec       q    Type
REMARK                         _______ _______ _______ _____ _____    ______ ____
ROOT
ATOM      1  O   HOH     1      32.108  65.649  19.091  0.00  0.00    +0.000 OA
ENDROOT
TORSDOF 0
REMARK  Name = ../refined-set-2016/1ps3/1ps3_pocket.pdb
REMARK  153 active torsions:
REMARK  status: ('A' for Active; 'I' for Inactive)
REMARK    1  A    between atoms: _1  and  _3
REMARK    2  A    between atoms: _14  and  _17
REMARK    3  A    between atoms: _17  and  _18
REMARK    4  A    between atoms: _25  and  _26
REMARK    5  A    between atoms: _33  and  _34
REMARK    6  A    between atoms: _39  and  _41
REMARK    7  A    between atoms: _41  and  _42
REMARK    8  A    between atoms: _44  and  _46
REMARK    9  A    between atoms: _46  and  _47
REMARK   10  A    between atoms: _46  and  _49
REMARK   11  A    between atoms: _49  and  _50
REMARK   12  A    between atoms: _60  and  _62
REMARK   13  A    between atoms: _62  and  _63
REMARK   14  A    between atoms: _62  and  _65
REMARK   15  A    between atoms: _65  and  _66
REMARK   16  A    between atoms: _69  and  _71
REMARK   17  A    between atoms: _71  and  _72
REMARK   18  A    between atoms: _71  and  _74
REMARK   19  A    between atoms: _74  and  _75
REMARK   20  A    between atoms: _80  and  _81
REMARK   21  A    between atoms: _83  and  _85
REMARK   22  A    between atoms: _85  and  _86
REMARK   23  A    between atoms: _85  and  _88
REMARK   24  A    between atoms: _88  and  _89
REMARK   25  A    between atoms: _89  and  _90
REMARK   26  A    between atoms: _93  and  _95
REMARK   27  A    between atoms: _95  and  _96
REMARK   28  A    between atoms: _95  and  _98
REMARK   29  A    between atoms: _98  and  _99
REMARK   30  A    between atoms: _99  and  _100
REMARK   31  A    between atoms: _102  and  _104
REMARK   32  A    between atoms: _104  and  _105
REMARK   33  A    between atoms: _104  and  _107
REMARK   34  A    between atoms: _107  and  _108
REMARK   35  A    between atoms: _111  and  _113
REMARK   36  A    between atoms: _113  and  _114
REMARK   37  A    between atoms: _113  and  _116
REMARK   38  A    between atoms: _116  and  _117
REMARK   39  A    between atoms: _117  and  _118
REMARK   40  A    between atoms: _118  and  ZN_414
REMARK   41  A    between atoms: _121  and  _122
REMARK   42  A    between atoms: _127  and  _129
REMARK   43  A    between atoms: _129  and  _130
REMARK   44  A    between atoms: _129  and  _132
REMARK   45  A    between atoms: _132  and  _133
REMARK   46  A    between atoms: _139  and  _141
REMARK   47  A    between atoms: _141  and  _142
REMARK   48  A    between atoms: _141  and  _144
REMARK   49  A    between atoms: _144  and  _145
REMARK   50  A    between atoms: _145  and  _146
REMARK   51  A    between atoms: _146  and  _147
REMARK   52  A    between atoms: _156  and  _158
REMARK   53  A    between atoms: _158  and  _159
REMARK   54  A    between atoms: _158  and  _161
REMARK   55  A    between atoms: _161  and  _162
REMARK   56  A    between atoms: _167  and  _168
REMARK   57  A    between atoms: _170  and  _172
REMARK   58  A    between atoms: _172  and  _173
REMARK   59  A    between atoms: _172  and  _175
REMARK   60  A    between atoms: _175  and  _176
REMARK   61  A    between atoms: _178  and  _180
REMARK   62  A    between atoms: _180  and  _181
REMARK   63  A    between atoms: _180  and  _183
REMARK   64  A    between atoms: _183  and  _184
REMARK   65  A    between atoms: _189  and  _190
REMARK   66  A    between atoms: _192  and  _194
REMARK   67  A    between atoms: _194  and  _195
REMARK   68  A    between atoms: _194  and  _197
REMARK   69  A    between atoms: _197  and  _198
REMARK   70  A    between atoms: _201  and  _203
REMARK   71  A    between atoms: _203  and  _204
REMARK   72  A    between atoms: _203  and  _206
REMARK   73  A    between atoms: _206  and  _207
REMARK   74  A    between atoms: _210  and  _212
REMARK   75  A    between atoms: _212  and  _213
REMARK   76  A    between atoms: _212  and  _215
REMARK   77  A    between atoms: _215  and  _216
REMARK   78  A    between atoms: _219  and  _221
REMARK   79  A    between atoms: _221  and  _222
REMARK   80  A    between atoms: _221  and  _224
REMARK   81  A    between atoms: _224  and  _225
REMARK   82  A    between atoms: _231  and  _233
REMARK   83  A    between atoms: _233  and  _234
REMARK   84  A    between atoms: _233  and  _236
REMARK   85  A    between atoms: _236  and  _237
REMARK   86  A    between atoms: _242  and  _243
REMARK   87  A    between atoms: _245  and  _247
REMARK   88  A    between atoms: _247  and  _248
REMARK   89  A    between atoms: _247  and  _250
REMARK   90  A    between atoms: _250  and  _251
REMARK   91  A    between atoms: _254  and  _256
REMARK   92  A    between atoms: _256  and  _257
REMARK   93  A    between atoms: _256  and  _259
REMARK   94  A    between atoms: _259  and  _260
REMARK   95  A    between atoms: _270  and  _272
REMARK   96  A    between atoms: _272  and  _273
REMARK   97  A    between atoms: _272  and  _275
REMARK   98  A    between atoms: _275  and  _276
REMARK   99  A    between atoms: _281  and  _283
REMARK  100  A    between atoms: _283  and  _284
REMARK  101  A    between atoms: _283  and  _286
REMARK  102  A    between atoms: _286  and  _287
REMARK  103  A    between atoms: _291  and  ZN_414
REMARK  104  A    between atoms: _292  and  _294
REMARK  105  A    between atoms: _294  and  _295
REMARK  106  A    between atoms: _294  and  _297
REMARK  107  A    between atoms: _297  and  _298
REMARK  108  A    between atoms: _301  and  _303
REMARK  109  A    between atoms: _303  and  _304
REMARK  110  A    between atoms: _306  and  _308
REMARK  111  A    between atoms: _308  and  _309
REMARK  112  A    between atoms: _308  and  _311
REMARK  113  A    between atoms: _311  and  _312
REMARK  114  A    between atoms: _315  and  _317
REMARK  115  A    between atoms: _317  and  _318
REMARK  116  A    between atoms: _317  and  _320
REMARK  117  A    between atoms: _320  and  _321
REMARK  118  A    between atoms: _324  and  _326
REMARK  119  A    between atoms: _326  and  _327
REMARK  120  A    between atoms: _330  and  _332
REMARK  121  A    between atoms: _332  and  _333
REMARK  122  A    between atoms: _336  and  _338
REMARK  123  A    between atoms: _338  and  _339
REMARK  124  A    between atoms: _338  and  _341
REMARK  125  A    between atoms: _341  and  _342
REMARK  126  A    between atoms: _347  and  _348
REMARK  127  A    between atoms: _350  and  _352
REMARK  128  A    between atoms: _352  and  _353
REMARK  129  A    between atoms: _352  and  _355
REMARK  130  A    between atoms: _355  and  _356
REMARK  131  A    between atoms: _359  and  _361
REMARK  132  A    between atoms: _361  and  _362
REMARK  133  A    between atoms: _361  and  _364
REMARK  134  A    between atoms: _364  and  _365
REMARK  135  A    between atoms: _368  and  _370
REMARK  136  A    between atoms: _370  and  _371
REMARK  137  A    between atoms: _370  and  _373
REMARK  138  A    between atoms: _373  and  _374
REMARK  139  A    between atoms: _374  and  _375
REMARK  140  A    between atoms: _378  and  _380
REMARK  141  A    between atoms: _380  and  _381
REMARK  142  A    between atoms: _380  and  _383
REMARK  143  A    between atoms: _383  and  _384
REMARK  144  A    between atoms: _384  and  _385
REMARK  145  A    between atoms: _385  and  _386
REMARK  146  A    between atoms: _395  and  _397
REMARK  147  A    between atoms: _397  and  _398
REMARK  148  A    between atoms: _400  and  _402
REMARK  149  A    between atoms: _402  and  _403
REMARK  150  A    between atoms: _402  and  _405
REMARK  151  A    between atoms: _405  and  _406
REMARK  152  A    between atoms: _409  and  _411
REMARK  153  A    between atoms: _411  and  _412
REMARK                            x       y       z     vdW  Elec       q    Type
REMARK                         _______ _______ _______ _____ _____    ______ ____
ROOT
ATOM      1  O   HOH     1      37.863  59.126  11.240  0.00  0.00    +0.000 OA
ENDROOT
TORSDOF 0
REMARK  Name = ../refined-set-2016/1ps3/1ps3_pocket.pdb
REMARK  153 active torsions:
REMARK  status: ('A' for Active; 'I' for Inactive)
REMARK    1  A    between atoms: _1  and  _3
REMARK    2  A    between atoms: _14  and  _17
REMARK    3  A    between atoms: _17  and  _18
REMARK    4  A    between atoms: _25  and  _26
REMARK    5  A    between atoms: _33  and  _34
REMARK    6  A    between atoms: _39  and  _41
REMARK    7  A    between atoms: _41  and  _42
REMARK    8  A    between atoms: _44  and  _46
REMARK    9  A    between atoms: _46  and  _47
REMARK   10  A    between atoms: _46  and  _49
REMARK   11  A    between atoms: _49  and  _50
REMARK   12  A    between atoms: _60  and  _62
REMARK   13  A    between atoms: _62  and  _63
REMARK   14  A    between atoms: _62  and  _65
REMARK   15  A    between atoms: _65  and  _66
REMARK   16  A    between atoms: _69  and  _71
REMARK   17  A    between atoms: _71  and  _72
REMARK   18  A    between atoms: _71  and  _74
REMARK   19  A    between atoms: _74  and  _75
REMARK   20  A    between atoms: _80  and  _81
REMARK   21  A    between atoms: _83  and  _85
REMARK   22  A    between atoms: _85  and  _86
REMARK   23  A    between atoms: _85  and  _88
REMARK   24  A    between atoms: _88  and  _89
REMARK   25  A    between atoms: _89  and  _90
REMARK   26  A    between atoms: _93  and  _95
REMARK   27  A    between atoms: _95  and  _96
REMARK   28  A    between atoms: _95  and  _98
REMARK   29  A    between atoms: _98  and  _99
REMARK   30  A    between atoms: _99  and  _100
REMARK   31  A    between atoms: _102  and  _104
REMARK   32  A    between atoms: _104  and  _105
REMARK   33  A    between atoms: _104  and  _107
REMARK   34  A    between atoms: _107  and  _108
REMARK   35  A    between atoms: _111  and  _113
REMARK   36  A    between atoms: _113  and  _114
REMARK   37  A    between atoms: _113  and  _116
REMARK   38  A    between atoms: _116  and  _117
REMARK   39  A    between atoms: _117  and  _118
REMARK   40  A    between atoms: _118  and  ZN_414
REMARK   41  A    between atoms: _121  and  _122
REMARK   42  A    between atoms: _127  and  _129
REMARK   43  A    between atoms: _129  and  _130
REMARK   44  A    between atoms: _129  and  _132
REMARK   45  A    between atoms: _132  and  _133
REMARK   46  A    between atoms: _139  and  _141
REMARK   47  A    between atoms: _141  and  _142
REMARK   48  A    between atoms: _141  and  _144
REMARK   49  A    between atoms: _144  and  _145
REMARK   50  A    between atoms: _145  and  _146
REMARK   51  A    between atoms: _146  and  _147
REMARK   52  A    between atoms: _156  and  _158
REMARK   53  A    between atoms: _158  and  _159
REMARK   54  A    between atoms: _158  and  _161
REMARK   55  A    between atoms: _161  and  _162
REMARK   56  A    between atoms: _167  and  _168
REMARK   57  A    between atoms: _170  and  _172
REMARK   58  A    between atoms: _172  and  _173
REMARK   59  A    between atoms: _172  and  _175
REMARK   60  A    between atoms: _175  and  _176
REMARK   61  A    between atoms: _178  and  _180
REMARK   62  A    between atoms: _180  and  _181
REMARK   63  A    between atoms: _180  and  _183
REMARK   64  A    between atoms: _183  and  _184
REMARK   65  A    between atoms: _189  and  _190
REMARK   66  A    between atoms: _192  and  _194
REMARK   67  A    between atoms: _194  and  _195
REMARK   68  A    between atoms: _194  and  _197
REMARK   69  A    between atoms: _197  and  _198
REMARK   70  A    between atoms: _201  and  _203
REMARK   71  A    between atoms: _203  and  _204
REMARK   72  A    between atoms: _203  and  _206
REMARK   73  A    between atoms: _206  and  _207
REMARK   74  A    between atoms: _210  and  _212
REMARK   75  A    between atoms: _212  and  _213
REMARK   76  A    between atoms: _212  and  _215
REMARK   77  A    between atoms: _215  and  _216
REMARK   78  A    between atoms: _219  and  _221
REMARK   79  A    between atoms: _221  and  _222
REMARK   80  A    between atoms: _221  and  _224
REMARK   81  A    between atoms: _224  and  _225
REMARK   82  A    between atoms: _231  and  _233
REMARK   83  A    between atoms: _233  and  _234
REMARK   84  A    between atoms: _233  and  _236
REMARK   85  A    between atoms: _236  and  _237
REMARK   86  A    between atoms: _242  and  _243
REMARK   87  A    between atoms: _245  and  _247
REMARK   88  A    between atoms: _247  and  _248
REMARK   89  A    between atoms: _247  and  _250
REMARK   90  A    between atoms: _250  and  _251
REMARK   91  A    between atoms: _254  and  _256
REMARK   92  A    between atoms: _256  and  _257
REMARK   93  A    between atoms: _256  and  _259
REMARK   94  A    between atoms: _259  and  _260
REMARK   95  A    between atoms: _270  and  _272
REMARK   96  A    between atoms: _272  and  _273
REMARK   97  A    between atoms: _272  and  _275
REMARK   98  A    between atoms: _275  and  _276
REMARK   99  A    between atoms: _281  and  _283
REMARK  100  A    between atoms: _283  and  _284
REMARK  101  A    between atoms: _283  and  _286
REMARK  102  A    between atoms: _286  and  _287
REMARK  103  A    between atoms: _291  and  ZN_414
REMARK  104  A    between atoms: _292  and  _294
REMARK  105  A    between atoms: _294  and  _295
REMARK  106  A    between atoms: _294  and  _297
REMARK  107  A    between atoms: _297  and  _298
REMARK  108  A    between atoms: _301  and  _303
REMARK  109  A    between atoms: _303  and  _304
REMARK  110  A    between atoms: _306  and  _308
REMARK  111  A    between atoms: _308  and  _309
REMARK  112  A    between atoms: _308  and  _311
REMARK  113  A    between atoms: _311  and  _312
REMARK  114  A    between atoms: _315  and  _317
REMARK  115  A    between atoms: _317  and  _318
REMARK  116  A    between atoms: _317  and  _320
REMARK  117  A    between atoms: _320  and  _321
REMARK  118  A    between atoms: _324  and  _326
REMARK  119  A    between atoms: _326  and  _327
REMARK  120  A    between atoms: _330  and  _332
REMARK  121  A    between atoms: _332  and  _333
REMARK  122  A    between atoms: _336  and  _338
REMARK  123  A    between atoms: _338  and  _339
REMARK  124  A    between atoms: _338  and  _341
REMARK  125  A    between atoms: _341  and  _342
REMARK  126  A    between atoms: _347  and  _348
REMARK  127  A    between atoms: _350  and  _352
REMARK  128  A    between atoms: _352  and  _353
REMARK  129  A    between atoms: _352  and  _355
REMARK  130  A    between atoms: _355  and  _356
REMARK  131  A    between atoms: _359  and  _361
REMARK  132  A    between atoms: _361  and  _362
REMARK  133  A    between atoms: _361  and  _364
REMARK  134  A    between atoms: _364  and  _365
REMARK  135  A    between atoms: _368  and  _370
REMARK  136  A    between atoms: _370  and  _371
REMARK  137  A    between atoms: _370  and  _373
REMARK  138  A    between atoms: _373  and  _374
REMARK  139  A    between atoms: _374  and  _375
REMARK  140  A    between atoms: _378  and  _380
REMARK  141  A    between atoms: _380  and  _381
REMARK  142  A    between atoms: _380  and  _383
REMARK  143  A    between atoms: _383  and  _384
REMARK  144  A    between atoms: _384  and  _385
REMARK  145  A    between atoms: _385  and  _386
REMARK  146  A    between atoms: _395  and  _397
REMARK  147  A    between atoms: _397  and  _398
REMARK  148  A    between atoms: _400  and  _402
REMARK  149  A    between atoms: _402  and  _403
REMARK  150  A    between atoms: _402  and  _405
REMARK  151  A    between atoms: _405  and  _406
REMARK  152  A    between atoms: _409  and  _411
REMARK  153  A    between atoms: _411  and  _412
REMARK                            x       y       z     vdW  Elec       q    Type
REMARK                         _______ _______ _______ _____ _____    ______ ____
ROOT
ATOM      1  O   HOH     1      40.334  62.827   6.083  0.00  0.00    +0.000 OA
ENDROOT
TORSDOF 0
REMARK  Name = ../refined-set-2016/1ps3/1ps3_pocket.pdb
REMARK  153 active torsions:
REMARK  status: ('A' for Active; 'I' for Inactive)
REMARK    1  A    between atoms: _1  and  _3
REMARK    2  A    between atoms: _14  and  _17
REMARK    3  A    between atoms: _17  and  _18
REMARK    4  A    between atoms: _25  and  _26
REMARK    5  A    between atoms: _33  and  _34
REMARK    6  A    between atoms: _39  and  _41
REMARK    7  A    between atoms: _41  and  _42
REMARK    8  A    between atoms: _44  and  _46
REMARK    9  A    between atoms: _46  and  _47
REMARK   10  A    between atoms: _46  and  _49
REMARK   11  A    between atoms: _49  and  _50
REMARK   12  A    between atoms: _60  and  _62
REMARK   13  A    between atoms: _62  and  _63
REMARK   14  A    between atoms: _62  and  _65
REMARK   15  A    between atoms: _65  and  _66
REMARK   16  A    between atoms: _69  and  _71
REMARK   17  A    between atoms: _71  and  _72
REMARK   18  A    between atoms: _71  and  _74
REMARK   19  A    between atoms: _74  and  _75
REMARK   20  A    between atoms: _80  and  _81
REMARK   21  A    between atoms: _83  and  _85
REMARK   22  A    between atoms: _85  and  _86
REMARK   23  A    between atoms: _85  and  _88
REMARK   24  A    between atoms: _88  and  _89
REMARK   25  A    between atoms: _89  and  _90
REMARK   26  A    between atoms: _93  and  _95
REMARK   27  A    between atoms: _95  and  _96
REMARK   28  A    between atoms: _95  and  _98
REMARK   29  A    between atoms: _98  and  _99
REMARK   30  A    between atoms: _99  and  _100
REMARK   31  A    between atoms: _102  and  _104
REMARK   32  A    between atoms: _104  and  _105
REMARK   33  A    between atoms: _104  and  _107
REMARK   34  A    between atoms: _107  and  _108
REMARK   35  A    between atoms: _111  and  _113
REMARK   36  A    between atoms: _113  and  _114
REMARK   37  A    between atoms: _113  and  _116
REMARK   38  A    between atoms: _116  and  _117
REMARK   39  A    between atoms: _117  and  _118
REMARK   40  A    between atoms: _118  and  ZN_414
REMARK   41  A    between atoms: _121  and  _122
REMARK   42  A    between atoms: _127  and  _129
REMARK   43  A    between atoms: _129  and  _130
REMARK   44  A    between atoms: _129  and  _132
REMARK   45  A    between atoms: _132  and  _133
REMARK   46  A    between atoms: _139  and  _141
REMARK   47  A    between atoms: _141  and  _142
REMARK   48  A    between atoms: _141  and  _144
REMARK   49  A    between atoms: _144  and  _145
REMARK   50  A    between atoms: _145  and  _146
REMARK   51  A    between atoms: _146  and  _147
REMARK   52  A    between atoms: _156  and  _158
REMARK   53  A    between atoms: _158  and  _159
REMARK   54  A    between atoms: _158  and  _161
REMARK   55  A    between atoms: _161  and  _162
REMARK   56  A    between atoms: _167  and  _168
REMARK   57  A    between atoms: _170  and  _172
REMARK   58  A    between atoms: _172  and  _173
REMARK   59  A    between atoms: _172  and  _175
REMARK   60  A    between atoms: _175  and  _176
REMARK   61  A    between atoms: _178  and  _180
REMARK   62  A    between atoms: _180  and  _181
REMARK   63  A    between atoms: _180  and  _183
REMARK   64  A    between atoms: _183  and  _184
REMARK   65  A    between atoms: _189  and  _190
REMARK   66  A    between atoms: _192  and  _194
REMARK   67  A    between atoms: _194  and  _195
REMARK   68  A    between atoms: _194  and  _197
REMARK   69  A    between atoms: _197  and  _198
REMARK   70  A    between atoms: _201  and  _203
REMARK   71  A    between atoms: _203  and  _204
REMARK   72  A    between atoms: _203  and  _206
REMARK   73  A    between atoms: _206  and  _207
REMARK   74  A    between atoms: _210  and  _212
REMARK   75  A    between atoms: _212  and  _213
REMARK   76  A    between atoms: _212  and  _215
REMARK   77  A    between atoms: _215  and  _216
REMARK   78  A    between atoms: _219  and  _221
REMARK   79  A    between atoms: _221  and  _222
REMARK   80  A    between atoms: _221  and  _224
REMARK   81  A    between atoms: _224  and  _225
REMARK   82  A    between atoms: _231  and  _233
REMARK   83  A    between atoms: _233  and  _234
REMARK   84  A    between atoms: _233  and  _236
REMARK   85  A    between atoms: _236  and  _237
REMARK   86  A    between atoms: _242  and  _243
REMARK   87  A    between atoms: _245  and  _247
REMARK   88  A    between atoms: _247  and  _248
REMARK   89  A    between atoms: _247  and  _250
REMARK   90  A    between atoms: _250  and  _251
REMARK   91  A    between atoms: _254  and  _256
REMARK   92  A    between atoms: _256  and  _257
REMARK   93  A    between atoms: _256  and  _259
REMARK   94  A    between atoms: _259  and  _260
REMARK   95  A    between atoms: _270  and  _272
REMARK   96  A    between atoms: _272  and  _273
REMARK   97  A    between atoms: _272  and  _275
REMARK   98  A    between atoms: _275  and  _276
REMARK   99  A    between atoms: _281  and  _283
REMARK  100  A    between atoms: _283  and  _284
REMARK  101  A    between atoms: _283  and  _286
REMARK  102  A    between atoms: _286  and  _287
REMARK  103  A    between atoms: _291  and  ZN_414
REMARK  104  A    between atoms: _292  and  _294
REMARK  105  A    between atoms: _294  and  _295
REMARK  106  A    between atoms: _294  and  _297
REMARK  107  A    between atoms: _297  and  _298
REMARK  108  A    between atoms: _301  and  _303
REMARK  109  A    between atoms: _303  and  _304
REMARK  110  A    between atoms: _306  and  _308
REMARK  111  A    between atoms: _308  and  _309
REMARK  112  A    between atoms: _308  and  _311
REMARK  113  A    between atoms: _311  and  _312
REMARK  114  A    between atoms: _315  and  _317
REMARK  115  A    between atoms: _317  and  _318
REMARK  116  A    between atoms: _317  and  _320
REMARK  117  A    between atoms: _320  and  _321
REMARK  118  A    between atoms: _324  and  _326
REMARK  119  A    between atoms: _326  and  _327
REMARK  120  A    between atoms: _330  and  _332
REMARK  121  A    between atoms: _332  and  _333
REMARK  122  A    between atoms: _336  and  _338
REMARK  123  A    between atoms: _338  and  _339
REMARK  124  A    between atoms: _338  and  _341
REMARK  125  A    between atoms: _341  and  _342
REMARK  126  A    between atoms: _347  and  _348
REMARK  127  A    between atoms: _350  and  _352
REMARK  128  A    between atoms: _352  and  _353
REMARK  129  A    between atoms: _352  and  _355
REMARK  130  A    between atoms: _355  and  _356
REMARK  131  A    between atoms: _359  and  _361
REMARK  132  A    between atoms: _361  and  _362
REMARK  133  A    between atoms: _361  and  _364
REMARK  134  A    between atoms: _364  and  _365
REMARK  135  A    between atoms: _368  and  _370
REMARK  136  A    between atoms: _370  and  _371
REMARK  137  A    between atoms: _370  and  _373
REMARK  138  A    between atoms: _373  and  _374
REMARK  139  A    between atoms: _374  and  _375
REMARK  140  A    between atoms: _378  and  _380
REMARK  141  A    between atoms: _380  and  _381
REMARK  142  A    between atoms: _380  and  _383
REMARK  143  A    between atoms: _383  and  _384
REMARK  144  A    between atoms: _384  and  _385
REMARK  145  A    between atoms: _385  and  _386
REMARK  146  A    between atoms: _395  and  _397
REMARK  147  A    between atoms: _397  and  _398
REMARK  148  A    between atoms: _400  and  _402
REMARK  149  A    between atoms: _402  and  _403
REMARK  150  A    between atoms: _402  and  _405
REMARK  151  A    between atoms: _405  and  _406
REMARK  152  A    between atoms: _409  and  _411
REMARK  153  A    between atoms: _411  and  _412
REMARK                            x       y       z     vdW  Elec       q    Type
REMARK                         _______ _______ _______ _____ _____    ______ ____
ROOT
ATOM      1  O   HOH     1      38.773  62.393   8.481  0.00  0.00    +0.000 OA
ENDROOT
TORSDOF 0
REMARK  Name = ../refined-set-2016/1ps3/1ps3_pocket.pdb
REMARK  153 active torsions:
REMARK  status: ('A' for Active; 'I' for Inactive)
REMARK    1  A    between atoms: _1  and  _3
REMARK    2  A    between atoms: _14  and  _17
REMARK    3  A    between atoms: _17  and  _18
REMARK    4  A    between atoms: _25  and  _26
REMARK    5  A    between atoms: _33  and  _34
REMARK    6  A    between atoms: _39  and  _41
REMARK    7  A    between atoms: _41  and  _42
REMARK    8  A    between atoms: _44  and  _46
REMARK    9  A    between atoms: _46  and  _47
REMARK   10  A    between atoms: _46  and  _49
REMARK   11  A    between atoms: _49  and  _50
REMARK   12  A    between atoms: _60  and  _62
REMARK   13  A    between atoms: _62  and  _63
REMARK   14  A    between atoms: _62  and  _65
REMARK   15  A    between atoms: _65  and  _66
REMARK   16  A    between atoms: _69  and  _71
REMARK   17  A    between atoms: _71  and  _72
REMARK   18  A    between atoms: _71  and  _74
REMARK   19  A    between atoms: _74  and  _75
REMARK   20  A    between atoms: _80  and  _81
REMARK   21  A    between atoms: _83  and  _85
REMARK   22  A    between atoms: _85  and  _86
REMARK   23  A    between atoms: _85  and  _88
REMARK   24  A    between atoms: _88  and  _89
REMARK   25  A    between atoms: _89  and  _90
REMARK   26  A    between atoms: _93  and  _95
REMARK   27  A    between atoms: _95  and  _96
REMARK   28  A    between atoms: _95  and  _98
REMARK   29  A    between atoms: _98  and  _99
REMARK   30  A    between atoms: _99  and  _100
REMARK   31  A    between atoms: _102  and  _104
REMARK   32  A    between atoms: _104  and  _105
REMARK   33  A    between atoms: _104  and  _107
REMARK   34  A    between atoms: _107  and  _108
REMARK   35  A    between atoms: _111  and  _113
REMARK   36  A    between atoms: _113  and  _114
REMARK   37  A    between atoms: _113  and  _116
REMARK   38  A    between atoms: _116  and  _117
REMARK   39  A    between atoms: _117  and  _118
REMARK   40  A    between atoms: _118  and  ZN_414
REMARK   41  A    between atoms: _121  and  _122
REMARK   42  A    between atoms: _127  and  _129
REMARK   43  A    between atoms: _129  and  _130
REMARK   44  A    between atoms: _129  and  _132
REMARK   45  A    between atoms: _132  and  _133
REMARK   46  A    between atoms: _139  and  _141
REMARK   47  A    between atoms: _141  and  _142
REMARK   48  A    between atoms: _141  and  _144
REMARK   49  A    between atoms: _144  and  _145
REMARK   50  A    between atoms: _145  and  _146
REMARK   51  A    between atoms: _146  and  _147
REMARK   52  A    between atoms: _156  and  _158
REMARK   53  A    between atoms: _158  and  _159
REMARK   54  A    between atoms: _158  and  _161
REMARK   55  A    between atoms: _161  and  _162
REMARK   56  A    between atoms: _167  and  _168
REMARK   57  A    between atoms: _170  and  _172
REMARK   58  A    between atoms: _172  and  _173
REMARK   59  A    between atoms: _172  and  _175
REMARK   60  A    between atoms: _175  and  _176
REMARK   61  A    between atoms: _178  and  _180
REMARK   62  A    between atoms: _180  and  _181
REMARK   63  A    between atoms: _180  and  _183
REMARK   64  A    between atoms: _183  and  _184
REMARK   65  A    between atoms: _189  and  _190
REMARK   66  A    between atoms: _192  and  _194
REMARK   67  A    between atoms: _194  and  _195
REMARK   68  A    between atoms: _194  and  _197
REMARK   69  A    between atoms: _197  and  _198
REMARK   70  A    between atoms: _201  and  _203
REMARK   71  A    between atoms: _203  and  _204
REMARK   72  A    between atoms: _203  and  _206
REMARK   73  A    between atoms: _206  and  _207
REMARK   74  A    between atoms: _210  and  _212
REMARK   75  A    between atoms: _212  and  _213
REMARK   76  A    between atoms: _212  and  _215
REMARK   77  A    between atoms: _215  and  _216
REMARK   78  A    between atoms: _219  and  _221
REMARK   79  A    between atoms: _221  and  _222
REMARK   80  A    between atoms: _221  and  _224
REMARK   81  A    between atoms: _224  and  _225
REMARK   82  A    between atoms: _231  and  _233
REMARK   83  A    between atoms: _233  and  _234
REMARK   84  A    between atoms: _233  and  _236
REMARK   85  A    between atoms: _236  and  _237
REMARK   86  A    between atoms: _242  and  _243
REMARK   87  A    between atoms: _245  and  _247
REMARK   88  A    between atoms: _247  and  _248
REMARK   89  A    between atoms: _247  and  _250
REMARK   90  A    between atoms: _250  and  _251
REMARK   91  A    between atoms: _254  and  _256
REMARK   92  A    between atoms: _256  and  _257
REMARK   93  A    between atoms: _256  and  _259
REMARK   94  A    between atoms: _259  and  _260
REMARK   95  A    between atoms: _270  and  _272
REMARK   96  A    between atoms: _272  and  _273
REMARK   97  A    between atoms: _272  and  _275
REMARK   98  A    between atoms: _275  and  _276
REMARK   99  A    between atoms: _281  and  _283
REMARK  100  A    between atoms: _283  and  _284
REMARK  101  A    between atoms: _283  and  _286
REMARK  102  A    between atoms: _286  and  _287
REMARK  103  A    between atoms: _291  and  ZN_414
REMARK  104  A    between atoms: _292  and  _294
REMARK  105  A    between atoms: _294  and  _295
REMARK  106  A    between atoms: _294  and  _297
REMARK  107  A    between atoms: _297  and  _298
REMARK  108  A    between atoms: _301  and  _303
REMARK  109  A    between atoms: _303  and  _304
REMARK  110  A    between atoms: _306  and  _308
REMARK  111  A    between atoms: _308  and  _309
REMARK  112  A    between atoms: _308  and  _311
REMARK  113  A    between atoms: _311  and  _312
REMARK  114  A    between atoms: _315  and  _317
REMARK  115  A    between atoms: _317  and  _318
REMARK  116  A    between atoms: _317  and  _320
REMARK  117  A    between atoms: _320  and  _321
REMARK  118  A    between atoms: _324  and  _326
REMARK  119  A    between atoms: _326  and  _327
REMARK  120  A    between atoms: _330  and  _332
REMARK  121  A    between atoms: _332  and  _333
REMARK  122  A    between atoms: _336  and  _338
REMARK  123  A    between atoms: _338  and  _339
REMARK  124  A    between atoms: _338  and  _341
REMARK  125  A    between atoms: _341  and  _342
REMARK  126  A    between atoms: _347  and  _348
REMARK  127  A    between atoms: _350  and  _352
REMARK  128  A    between atoms: _352  and  _353
REMARK  129  A    between atoms: _352  and  _355
REMARK  130  A    between atoms: _355  and  _356
REMARK  131  A    between atoms: _359  and  _361
REMARK  132  A    between atoms: _361  and  _362
REMARK  133  A    between atoms: _361  and  _364
REMARK  134  A    between atoms: _364  and  _365
REMARK  135  A    between atoms: _368  and  _370
REMARK  136  A    between atoms: _370  and  _371
REMARK  137  A    between atoms: _370  and  _373
REMARK  138  A    between atoms: _373  and  _374
REMARK  139  A    between atoms: _374  and  _375
REMARK  140  A    between atoms: _378  and  _380
REMARK  141  A    between atoms: _380  and  _381
REMARK  142  A    between atoms: _380  and  _383
REMARK  143  A    between atoms: _383  and  _384
REMARK  144  A    between atoms: _384  and  _385
REMARK  145  A    between atoms: _385  and  _386
REMARK  146  A    between atoms: _395  and  _397
REMARK  147  A    between atoms: _397  and  _398
REMARK  148  A    between atoms: _400  and  _402
REMARK  149  A    between atoms: _402  and  _403
REMARK  150  A    between atoms: _402  and  _405
REMARK  151  A    between atoms: _405  and  _406
REMARK  152  A    between atoms: _409  and  _411
REMARK  153  A    between atoms: _411  and  _412
REMARK                            x       y       z     vdW  Elec       q    Type
REMARK                         _______ _______ _______ _____ _____    ______ ____
ROOT
ATOM      1  O   HOH     1      26.116  72.837   5.579  0.00  0.00    +0.000 OA
ENDROOT
TORSDOF 0
REMARK  Name = ../refined-set-2016/1ps3/1ps3_pocket.pdb
REMARK  153 active torsions:
REMARK  status: ('A' for Active; 'I' for Inactive)
REMARK    1  A    between atoms: _1  and  _3
REMARK    2  A    between atoms: _14  and  _17
REMARK    3  A    between atoms: _17  and  _18
REMARK    4  A    between atoms: _25  and  _26
REMARK    5  A    between atoms: _33  and  _34
REMARK    6  A    between atoms: _39  and  _41
REMARK    7  A    between atoms: _41  and  _42
REMARK    8  A    between atoms: _44  and  _46
REMARK    9  A    between atoms: _46  and  _47
REMARK   10  A    between atoms: _46  and  _49
REMARK   11  A    between atoms: _49  and  _50
REMARK   12  A    between atoms: _60  and  _62
REMARK   13  A    between atoms: _62  and  _63
REMARK   14  A    between atoms: _62  and  _65
REMARK   15  A    between atoms: _65  and  _66
REMARK   16  A    between atoms: _69  and  _71
REMARK   17  A    between atoms: _71  and  _72
REMARK   18  A    between atoms: _71  and  _74
REMARK   19  A    between atoms: _74  and  _75
REMARK   20  A    between atoms: _80  and  _81
REMARK   21  A    between atoms: _83  and  _85
REMARK   22  A    between atoms: _85  and  _86
REMARK   23  A    between atoms: _85  and  _88
REMARK   24  A    between atoms: _88  and  _89
REMARK   25  A    between atoms: _89  and  _90
REMARK   26  A    between atoms: _93  and  _95
REMARK   27  A    between atoms: _95  and  _96
REMARK   28  A    between atoms: _95  and  _98
REMARK   29  A    between atoms: _98  and  _99
REMARK   30  A    between atoms: _99  and  _100
REMARK   31  A    between atoms: _102  and  _104
REMARK   32  A    between atoms: _104  and  _105
REMARK   33  A    between atoms: _104  and  _107
REMARK   34  A    between atoms: _107  and  _108
REMARK   35  A    between atoms: _111  and  _113
REMARK   36  A    between atoms: _113  and  _114
REMARK   37  A    between atoms: _113  and  _116
REMARK   38  A    between atoms: _116  and  _117
REMARK   39  A    between atoms: _117  and  _118
REMARK   40  A    between atoms: _118  and  ZN_414
REMARK   41  A    between atoms: _121  and  _122
REMARK   42  A    between atoms: _127  and  _129
REMARK   43  A    between atoms: _129  and  _130
REMARK   44  A    between atoms: _129  and  _132
REMARK   45  A    between atoms: _132  and  _133
REMARK   46  A    between atoms: _139  and  _141
REMARK   47  A    between atoms: _141  and  _142
REMARK   48  A    between atoms: _141  and  _144
REMARK   49  A    between atoms: _144  and  _145
REMARK   50  A    between atoms: _145  and  _146
REMARK   51  A    between atoms: _146  and  _147
REMARK   52  A    between atoms: _156  and  _158
REMARK   53  A    between atoms: _158  and  _159
REMARK   54  A    between atoms: _158  and  _161
REMARK   55  A    between atoms: _161  and  _162
REMARK   56  A    between atoms: _167  and  _168
REMARK   57  A    between atoms: _170  and  _172
REMARK   58  A    between atoms: _172  and  _173
REMARK   59  A    between atoms: _172  and  _175
REMARK   60  A    between atoms: _175  and  _176
REMARK   61  A    between atoms: _178  and  _180
REMARK   62  A    between atoms: _180  and  _181
REMARK   63  A    between atoms: _180  and  _183
REMARK   64  A    between atoms: _183  and  _184
REMARK   65  A    between atoms: _189  and  _190
REMARK   66  A    between atoms: _192  and  _194
REMARK   67  A    between atoms: _194  and  _195
REMARK   68  A    between atoms: _194  and  _197
REMARK   69  A    between atoms: _197  and  _198
REMARK   70  A    between atoms: _201  and  _203
REMARK   71  A    between atoms: _203  and  _204
REMARK   72  A    between atoms: _203  and  _206
REMARK   73  A    between atoms: _206  and  _207
REMARK   74  A    between atoms: _210  and  _212
REMARK   75  A    between atoms: _212  and  _213
REMARK   76  A    between atoms: _212  and  _215
REMARK   77  A    between atoms: _215  and  _216
REMARK   78  A    between atoms: _219  and  _221
REMARK   79  A    between atoms: _221  and  _222
REMARK   80  A    between atoms: _221  and  _224
REMARK   81  A    between atoms: _224  and  _225
REMARK   82  A    between atoms: _231  and  _233
REMARK   83  A    between atoms: _233  and  _234
REMARK   84  A    between atoms: _233  and  _236
REMARK   85  A    between atoms: _236  and  _237
REMARK   86  A    between atoms: _242  and  _243
REMARK   87  A    between atoms: _245  and  _247
REMARK   88  A    between atoms: _247  and  _248
REMARK   89  A    between atoms: _247  and  _250
REMARK   90  A    between atoms: _250  and  _251
REMARK   91  A    between atoms: _254  and  _256
REMARK   92  A    between atoms: _256  and  _257
REMARK   93  A    between atoms: _256  and  _259
REMARK   94  A    between atoms: _259  and  _260
REMARK   95  A    between atoms: _270  and  _272
REMARK   96  A    between atoms: _272  and  _273
REMARK   97  A    between atoms: _272  and  _275
REMARK   98  A    between atoms: _275  and  _276
REMARK   99  A    between atoms: _281  and  _283
REMARK  100  A    between atoms: _283  and  _284
REMARK  101  A    between atoms: _283  and  _286
REMARK  102  A    between atoms: _286  and  _287
REMARK  103  A    between atoms: _291  and  ZN_414
REMARK  104  A    between atoms: _292  and  _294
REMARK  105  A    between atoms: _294  and  _295
REMARK  106  A    between atoms: _294  and  _297
REMARK  107  A    between atoms: _297  and  _298
REMARK  108  A    between atoms: _301  and  _303
REMARK  109  A    between atoms: _303  and  _304
REMARK  110  A    between atoms: _306  and  _308
REMARK  111  A    between atoms: _308  and  _309
REMARK  112  A    between atoms: _308  and  _311
REMARK  113  A    between atoms: _311  and  _312
REMARK  114  A    between atoms: _315  and  _317
REMARK  115  A    between atoms: _317  and  _318
REMARK  116  A    between atoms: _317  and  _320
REMARK  117  A    between atoms: _320  and  _321
REMARK  118  A    between atoms: _324  and  _326
REMARK  119  A    between atoms: _326  and  _327
REMARK  120  A    between atoms: _330  and  _332
REMARK  121  A    between atoms: _332  and  _333
REMARK  122  A    between atoms: _336  and  _338
REMARK  123  A    between atoms: _338  and  _339
REMARK  124  A    between atoms: _338  and  _341
REMARK  125  A    between atoms: _341  and  _342
REMARK  126  A    between atoms: _347  and  _348
REMARK  127  A    between atoms: _350  and  _352
REMARK  128  A    between atoms: _352  and  _353
REMARK  129  A    between atoms: _352  and  _355
REMARK  130  A    between atoms: _355  and  _356
REMARK  131  A    between atoms: _359  and  _361
REMARK  132  A    between atoms: _361  and  _362
REMARK  133  A    between atoms: _361  and  _364
REMARK  134  A    between atoms: _364  and  _365
REMARK  135  A    between atoms: _368  and  _370
REMARK  136  A    between atoms: _370  and  _371
REMARK  137  A    between atoms: _370  and  _373
REMARK  138  A    between atoms: _373  and  _374
REMARK  139  A    between atoms: _374  and  _375
REMARK  140  A    between atoms: _378  and  _380
REMARK  141  A    between atoms: _380  and  _381
REMARK  142  A    between atoms: _380  and  _383
REMARK  143  A    between atoms: _383  and  _384
REMARK  144  A    between atoms: _384  and  _385
REMARK  145  A    between atoms: _385  and  _386
REMARK  146  A    between atoms: _395  and  _397
REMARK  147  A    between atoms: _397  and  _398
REMARK  148  A    between atoms: _400  and  _402
REMARK  149  A    between atoms: _402  and  _403
REMARK  150  A    between atoms: _402  and  _405
REMARK  151  A    between atoms: _405  and  _406
REMARK  152  A    between atoms: _409  and  _411
REMARK  153  A    between atoms: _411  and  _412
REMARK                            x       y       z     vdW  Elec       q    Type
REMARK                         _______ _______ _______ _____ _____    ______ ____
ROOT
ATOM      1  O   HOH     1      26.732  63.956  16.692  0.00  0.00    +0.000 OA
ENDROOT
TORSDOF 0
REMARK  Name = ../refined-set-2016/1ps3/1ps3_pocket.pdb
REMARK  153 active torsions:
REMARK  status: ('A' for Active; 'I' for Inactive)
REMARK    1  A    between atoms: _1  and  _3
REMARK    2  A    between atoms: _14  and  _17
REMARK    3  A    between atoms: _17  and  _18
REMARK    4  A    between atoms: _25  and  _26
REMARK    5  A    between atoms: _33  and  _34
REMARK    6  A    between atoms: _39  and  _41
REMARK    7  A    between atoms: _41  and  _42
REMARK    8  A    between atoms: _44  and  _46
REMARK    9  A    between atoms: _46  and  _47
REMARK   10  A    between atoms: _46  and  _49
REMARK   11  A    between atoms: _49  and  _50
REMARK   12  A    between atoms: _60  and  _62
REMARK   13  A    between atoms: _62  and  _63
REMARK   14  A    between atoms: _62  and  _65
REMARK   15  A    between atoms: _65  and  _66
REMARK   16  A    between atoms: _69  and  _71
REMARK   17  A    between atoms: _71  and  _72
REMARK   18  A    between atoms: _71  and  _74
REMARK   19  A    between atoms: _74  and  _75
REMARK   20  A    between atoms: _80  and  _81
REMARK   21  A    between atoms: _83  and  _85
REMARK   22  A    between atoms: _85  and  _86
REMARK   23  A    between atoms: _85  and  _88
REMARK   24  A    between atoms: _88  and  _89
REMARK   25  A    between atoms: _89  and  _90
REMARK   26  A    between atoms: _93  and  _95
REMARK   27  A    between atoms: _95  and  _96
REMARK   28  A    between atoms: _95  and  _98
REMARK   29  A    between atoms: _98  and  _99
REMARK   30  A    between atoms: _99  and  _100
REMARK   31  A    between atoms: _102  and  _104
REMARK   32  A    between atoms: _104  and  _105
REMARK   33  A    between atoms: _104  and  _107
REMARK   34  A    between atoms: _107  and  _108
REMARK   35  A    between atoms: _111  and  _113
REMARK   36  A    between atoms: _113  and  _114
REMARK   37  A    between atoms: _113  and  _116
REMARK   38  A    between atoms: _116  and  _117
REMARK   39  A    between atoms: _117  and  _118
REMARK   40  A    between atoms: _118  and  ZN_414
REMARK   41  A    between atoms: _121  and  _122
REMARK   42  A    between atoms: _127  and  _129
REMARK   43  A    between atoms: _129  and  _130
REMARK   44  A    between atoms: _129  and  _132
REMARK   45  A    between atoms: _132  and  _133
REMARK   46  A    between atoms: _139  and  _141
REMARK   47  A    between atoms: _141  and  _142
REMARK   48  A    between atoms: _141  and  _144
REMARK   49  A    between atoms: _144  and  _145
REMARK   50  A    between atoms: _145  and  _146
REMARK   51  A    between atoms: _146  and  _147
REMARK   52  A    between atoms: _156  and  _158
REMARK   53  A    between atoms: _158  and  _159
REMARK   54  A    between atoms: _158  and  _161
REMARK   55  A    between atoms: _161  and  _162
REMARK   56  A    between atoms: _167  and  _168
REMARK   57  A    between atoms: _170  and  _172
REMARK   58  A    between atoms: _172  and  _173
REMARK   59  A    between atoms: _172  and  _175
REMARK   60  A    between atoms: _175  and  _176
REMARK   61  A    between atoms: _178  and  _180
REMARK   62  A    between atoms: _180  and  _181
REMARK   63  A    between atoms: _180  and  _183
REMARK   64  A    between atoms: _183  and  _184
REMARK   65  A    between atoms: _189  and  _190
REMARK   66  A    between atoms: _192  and  _194
REMARK   67  A    between atoms: _194  and  _195
REMARK   68  A    between atoms: _194  and  _197
REMARK   69  A    between atoms: _197  and  _198
REMARK   70  A    between atoms: _201  and  _203
REMARK   71  A    between atoms: _203  and  _204
REMARK   72  A    between atoms: _203  and  _206
REMARK   73  A    between atoms: _206  and  _207
REMARK   74  A    between atoms: _210  and  _212
REMARK   75  A    between atoms: _212  and  _213
REMARK   76  A    between atoms: _212  and  _215
REMARK   77  A    between atoms: _215  and  _216
REMARK   78  A    between atoms: _219  and  _221
REMARK   79  A    between atoms: _221  and  _222
REMARK   80  A    between atoms: _221  and  _224
REMARK   81  A    between atoms: _224  and  _225
REMARK   82  A    between atoms: _231  and  _233
REMARK   83  A    between atoms: _233  and  _234
REMARK   84  A    between atoms: _233  and  _236
REMARK   85  A    between atoms: _236  and  _237
REMARK   86  A    between atoms: _242  and  _243
REMARK   87  A    between atoms: _245  and  _247
REMARK   88  A    between atoms: _247  and  _248
REMARK   89  A    between atoms: _247  and  _250
REMARK   90  A    between atoms: _250  and  _251
REMARK   91  A    between atoms: _254  and  _256
REMARK   92  A    between atoms: _256  and  _257
REMARK   93  A    between atoms: _256  and  _259
REMARK   94  A    between atoms: _259  and  _260
REMARK   95  A    between atoms: _270  and  _272
REMARK   96  A    between atoms: _272  and  _273
REMARK   97  A    between atoms: _272  and  _275
REMARK   98  A    between atoms: _275  and  _276
REMARK   99  A    between atoms: _281  and  _283
REMARK  100  A    between atoms: _283  and  _284
REMARK  101  A    between atoms: _283  and  _286
REMARK  102  A    between atoms: _286  and  _287
REMARK  103  A    between atoms: _291  and  ZN_414
REMARK  104  A    between atoms: _292  and  _294
REMARK  105  A    between atoms: _294  and  _295
REMARK  106  A    between atoms: _294  and  _297
REMARK  107  A    between atoms: _297  and  _298
REMARK  108  A    between atoms: _301  and  _303
REMARK  109  A    between atoms: _303  and  _304
REMARK  110  A    between atoms: _306  and  _308
REMARK  111  A    between atoms: _308  and  _309
REMARK  112  A    between atoms: _308  and  _311
REMARK  113  A    between atoms: _311  and  _312
REMARK  114  A    between atoms: _315  and  _317
REMARK  115  A    between atoms: _317  and  _318
REMARK  116  A    between atoms: _317  and  _320
REMARK  117  A    between atoms: _320  and  _321
REMARK  118  A    between atoms: _324  and  _326
REMARK  119  A    between atoms: _326  and  _327
REMARK  120  A    between atoms: _330  and  _332
REMARK  121  A    between atoms: _332  and  _333
REMARK  122  A    between atoms: _336  and  _338
REMARK  123  A    between atoms: _338  and  _339
REMARK  124  A    between atoms: _338  and  _341
REMARK  125  A    between atoms: _341  and  _342
REMARK  126  A    between atoms: _347  and  _348
REMARK  127  A    between atoms: _350  and  _352
REMARK  128  A    between atoms: _352  and  _353
REMARK  129  A    between atoms: _352  and  _355
REMARK  130  A    between atoms: _355  and  _356
REMARK  131  A    between atoms: _359  and  _361
REMARK  132  A    between atoms: _361  and  _362
REMARK  133  A    between atoms: _361  and  _364
REMARK  134  A    between atoms: _364  and  _365
REMARK  135  A    between atoms: _368  and  _370
REMARK  136  A    between atoms: _370  and  _371
REMARK  137  A    between atoms: _370  and  _373
REMARK  138  A    between atoms: _373  and  _374
REMARK  139  A    between atoms: _374  and  _375
REMARK  140  A    between atoms: _378  and  _380
REMARK  141  A    between atoms: _380  and  _381
REMARK  142  A    between atoms: _380  and  _383
REMARK  143  A    between atoms: _383  and  _384
REMARK  144  A    between atoms: _384  and  _385
REMARK  145  A    between atoms: _385  and  _386
REMARK  146  A    between atoms: _395  and  _397
REMARK  147  A    between atoms: _397  and  _398
REMARK  148  A    between atoms: _400  and  _402
REMARK  149  A    between atoms: _402  and  _403
REMARK  150  A    between atoms: _402  and  _405
REMARK  151  A    between atoms: _405  and  _406
REMARK  152  A    between atoms: _409  and  _411
REMARK  153  A    between atoms: _411  and  _412
REMARK                            x       y       z     vdW  Elec       q    Type
REMARK                         _______ _______ _______ _____ _____    ______ ____
ROOT
ATOM      1  O   HOH     1      24.289  63.428   7.568  0.00  0.00    +0.000 OA
ENDROOT
TORSDOF 0
REMARK  Name = ../refined-set-2016/1ps3/1ps3_pocket.pdb
REMARK  153 active torsions:
REMARK  status: ('A' for Active; 'I' for Inactive)
REMARK    1  A    between atoms: _1  and  _3
REMARK    2  A    between atoms: _14  and  _17
REMARK    3  A    between atoms: _17  and  _18
REMARK    4  A    between atoms: _25  and  _26
REMARK    5  A    between atoms: _33  and  _34
REMARK    6  A    between atoms: _39  and  _41
REMARK    7  A    between atoms: _41  and  _42
REMARK    8  A    between atoms: _44  and  _46
REMARK    9  A    between atoms: _46  and  _47
REMARK   10  A    between atoms: _46  and  _49
REMARK   11  A    between atoms: _49  and  _50
REMARK   12  A    between atoms: _60  and  _62
REMARK   13  A    between atoms: _62  and  _63
REMARK   14  A    between atoms: _62  and  _65
REMARK   15  A    between atoms: _65  and  _66
REMARK   16  A    between atoms: _69  and  _71
REMARK   17  A    between atoms: _71  and  _72
REMARK   18  A    between atoms: _71  and  _74
REMARK   19  A    between atoms: _74  and  _75
REMARK   20  A    between atoms: _80  and  _81
REMARK   21  A    between atoms: _83  and  _85
REMARK   22  A    between atoms: _85  and  _86
REMARK   23  A    between atoms: _85  and  _88
REMARK   24  A    between atoms: _88  and  _89
REMARK   25  A    between atoms: _89  and  _90
REMARK   26  A    between atoms: _93  and  _95
REMARK   27  A    between atoms: _95  and  _96
REMARK   28  A    between atoms: _95  and  _98
REMARK   29  A    between atoms: _98  and  _99
REMARK   30  A    between atoms: _99  and  _100
REMARK   31  A    between atoms: _102  and  _104
REMARK   32  A    between atoms: _104  and  _105
REMARK   33  A    between atoms: _104  and  _107
REMARK   34  A    between atoms: _107  and  _108
REMARK   35  A    between atoms: _111  and  _113
REMARK   36  A    between atoms: _113  and  _114
REMARK   37  A    between atoms: _113  and  _116
REMARK   38  A    between atoms: _116  and  _117
REMARK   39  A    between atoms: _117  and  _118
REMARK   40  A    between atoms: _118  and  ZN_414
REMARK   41  A    between atoms: _121  and  _122
REMARK   42  A    between atoms: _127  and  _129
REMARK   43  A    between atoms: _129  and  _130
REMARK   44  A    between atoms: _129  and  _132
REMARK   45  A    between atoms: _132  and  _133
REMARK   46  A    between atoms: _139  and  _141
REMARK   47  A    between atoms: _141  and  _142
REMARK   48  A    between atoms: _141  and  _144
REMARK   49  A    between atoms: _144  and  _145
REMARK   50  A    between atoms: _145  and  _146
REMARK   51  A    between atoms: _146  and  _147
REMARK   52  A    between atoms: _156  and  _158
REMARK   53  A    between atoms: _158  and  _159
REMARK   54  A    between atoms: _158  and  _161
REMARK   55  A    between atoms: _161  and  _162
REMARK   56  A    between atoms: _167  and  _168
REMARK   57  A    between atoms: _170  and  _172
REMARK   58  A    between atoms: _172  and  _173
REMARK   59  A    between atoms: _172  and  _175
REMARK   60  A    between atoms: _175  and  _176
REMARK   61  A    between atoms: _178  and  _180
REMARK   62  A    between atoms: _180  and  _181
REMARK   63  A    between atoms: _180  and  _183
REMARK   64  A    between atoms: _183  and  _184
REMARK   65  A    between atoms: _189  and  _190
REMARK   66  A    between atoms: _192  and  _194
REMARK   67  A    between atoms: _194  and  _195
REMARK   68  A    between atoms: _194  and  _197
REMARK   69  A    between atoms: _197  and  _198
REMARK   70  A    between atoms: _201  and  _203
REMARK   71  A    between atoms: _203  and  _204
REMARK   72  A    between atoms: _203  and  _206
REMARK   73  A    between atoms: _206  and  _207
REMARK   74  A    between atoms: _210  and  _212
REMARK   75  A    between atoms: _212  and  _213
REMARK   76  A    between atoms: _212  and  _215
REMARK   77  A    between atoms: _215  and  _216
REMARK   78  A    between atoms: _219  and  _221
REMARK   79  A    between atoms: _221  and  _222
REMARK   80  A    between atoms: _221  and  _224
REMARK   81  A    between atoms: _224  and  _225
REMARK   82  A    between atoms: _231  and  _233
REMARK   83  A    between atoms: _233  and  _234
REMARK   84  A    between atoms: _233  and  _236
REMARK   85  A    between atoms: _236  and  _237
REMARK   86  A    between atoms: _242  and  _243
REMARK   87  A    between atoms: _245  and  _247
REMARK   88  A    between atoms: _247  and  _248
REMARK   89  A    between atoms: _247  and  _250
REMARK   90  A    between atoms: _250  and  _251
REMARK   91  A    between atoms: _254  and  _256
REMARK   92  A    between atoms: _256  and  _257
REMARK   93  A    between atoms: _256  and  _259
REMARK   94  A    between atoms: _259  and  _260
REMARK   95  A    between atoms: _270  and  _272
REMARK   96  A    between atoms: _272  and  _273
REMARK   97  A    between atoms: _272  and  _275
REMARK   98  A    between atoms: _275  and  _276
REMARK   99  A    between atoms: _281  and  _283
REMARK  100  A    between atoms: _283  and  _284
REMARK  101  A    between atoms: _283  and  _286
REMARK  102  A    between atoms: _286  and  _287
REMARK  103  A    between atoms: _291  and  ZN_414
REMARK  104  A    between atoms: _292  and  _294
REMARK  105  A    between atoms: _294  and  _295
REMARK  106  A    between atoms: _294  and  _297
REMARK  107  A    between atoms: _297  and  _298
REMARK  108  A    between atoms: _301  and  _303
REMARK  109  A    between atoms: _303  and  _304
REMARK  110  A    between atoms: _306  and  _308
REMARK  111  A    between atoms: _308  and  _309
REMARK  112  A    between atoms: _308  and  _311
REMARK  113  A    between atoms: _311  and  _312
REMARK  114  A    between atoms: _315  and  _317
REMARK  115  A    between atoms: _317  and  _318
REMARK  116  A    between atoms: _317  and  _320
REMARK  117  A    between atoms: _320  and  _321
REMARK  118  A    between atoms: _324  and  _326
REMARK  119  A    between atoms: _326  and  _327
REMARK  120  A    between atoms: _330  and  _332
REMARK  121  A    between atoms: _332  and  _333
REMARK  122  A    between atoms: _336  and  _338
REMARK  123  A    between atoms: _338  and  _339
REMARK  124  A    between atoms: _338  and  _341
REMARK  125  A    between atoms: _341  and  _342
REMARK  126  A    between atoms: _347  and  _348
REMARK  127  A    between atoms: _350  and  _352
REMARK  128  A    between atoms: _352  and  _353
REMARK  129  A    between atoms: _352  and  _355
REMARK  130  A    between atoms: _355  and  _356
REMARK  131  A    between atoms: _359  and  _361
REMARK  132  A    between atoms: _361  and  _362
REMARK  133  A    between atoms: _361  and  _364
REMARK  134  A    between atoms: _364  and  _365
REMARK  135  A    between atoms: _368  and  _370
REMARK  136  A    between atoms: _370  and  _371
REMARK  137  A    between atoms: _370  and  _373
REMARK  138  A    between atoms: _373  and  _374
REMARK  139  A    between atoms: _374  and  _375
REMARK  140  A    between atoms: _378  and  _380
REMARK  141  A    between atoms: _380  and  _381
REMARK  142  A    between atoms: _380  and  _383
REMARK  143  A    between atoms: _383  and  _384
REMARK  144  A    between atoms: _384  and  _385
REMARK  145  A    between atoms: _385  and  _386
REMARK  146  A    between atoms: _395  and  _397
REMARK  147  A    between atoms: _397  and  _398
REMARK  148  A    between atoms: _400  and  _402
REMARK  149  A    between atoms: _402  and  _403
REMARK  150  A    between atoms: _402  and  _405
REMARK  151  A    between atoms: _405  and  _406
REMARK  152  A    between atoms: _409  and  _411
REMARK  153  A    between atoms: _411  and  _412
REMARK                            x       y       z     vdW  Elec       q    Type
REMARK                         _______ _______ _______ _____ _____    ______ ____
ROOT
ATOM      1  O   HOH     1      20.813  65.419   7.831  0.00  0.00    +0.000 OA
ENDROOT
TORSDOF 0
REMARK  Name = ../refined-set-2016/1ps3/1ps3_pocket.pdb
REMARK  153 active torsions:
REMARK  status: ('A' for Active; 'I' for Inactive)
REMARK    1  A    between atoms: _1  and  _3
REMARK    2  A    between atoms: _14  and  _17
REMARK    3  A    between atoms: _17  and  _18
REMARK    4  A    between atoms: _25  and  _26
REMARK    5  A    between atoms: _33  and  _34
REMARK    6  A    between atoms: _39  and  _41
REMARK    7  A    between atoms: _41  and  _42
REMARK    8  A    between atoms: _44  and  _46
REMARK    9  A    between atoms: _46  and  _47
REMARK   10  A    between atoms: _46  and  _49
REMARK   11  A    between atoms: _49  and  _50
REMARK   12  A    between atoms: _60  and  _62
REMARK   13  A    between atoms: _62  and  _63
REMARK   14  A    between atoms: _62  and  _65
REMARK   15  A    between atoms: _65  and  _66
REMARK   16  A    between atoms: _69  and  _71
REMARK   17  A    between atoms: _71  and  _72
REMARK   18  A    between atoms: _71  and  _74
REMARK   19  A    between atoms: _74  and  _75
REMARK   20  A    between atoms: _80  and  _81
REMARK   21  A    between atoms: _83  and  _85
REMARK   22  A    between atoms: _85  and  _86
REMARK   23  A    between atoms: _85  and  _88
REMARK   24  A    between atoms: _88  and  _89
REMARK   25  A    between atoms: _89  and  _90
REMARK   26  A    between atoms: _93  and  _95
REMARK   27  A    between atoms: _95  and  _96
REMARK   28  A    between atoms: _95  and  _98
REMARK   29  A    between atoms: _98  and  _99
REMARK   30  A    between atoms: _99  and  _100
REMARK   31  A    between atoms: _102  and  _104
REMARK   32  A    between atoms: _104  and  _105
REMARK   33  A    between atoms: _104  and  _107
REMARK   34  A    between atoms: _107  and  _108
REMARK   35  A    between atoms: _111  and  _113
REMARK   36  A    between atoms: _113  and  _114
REMARK   37  A    between atoms: _113  and  _116
REMARK   38  A    between atoms: _116  and  _117
REMARK   39  A    between atoms: _117  and  _118
REMARK   40  A    between atoms: _118  and  ZN_414
REMARK   41  A    between atoms: _121  and  _122
REMARK   42  A    between atoms: _127  and  _129
REMARK   43  A    between atoms: _129  and  _130
REMARK   44  A    between atoms: _129  and  _132
REMARK   45  A    between atoms: _132  and  _133
REMARK   46  A    between atoms: _139  and  _141
REMARK   47  A    between atoms: _141  and  _142
REMARK   48  A    between atoms: _141  and  _144
REMARK   49  A    between atoms: _144  and  _145
REMARK   50  A    between atoms: _145  and  _146
REMARK   51  A    between atoms: _146  and  _147
REMARK   52  A    between atoms: _156  and  _158
REMARK   53  A    between atoms: _158  and  _159
REMARK   54  A    between atoms: _158  and  _161
REMARK   55  A    between atoms: _161  and  _162
REMARK   56  A    between atoms: _167  and  _168
REMARK   57  A    between atoms: _170  and  _172
REMARK   58  A    between atoms: _172  and  _173
REMARK   59  A    between atoms: _172  and  _175
REMARK   60  A    between atoms: _175  and  _176
REMARK   61  A    between atoms: _178  and  _180
REMARK   62  A    between atoms: _180  and  _181
REMARK   63  A    between atoms: _180  and  _183
REMARK   64  A    between atoms: _183  and  _184
REMARK   65  A    between atoms: _189  and  _190
REMARK   66  A    between atoms: _192  and  _194
REMARK   67  A    between atoms: _194  and  _195
REMARK   68  A    between atoms: _194  and  _197
REMARK   69  A    between atoms: _197  and  _198
REMARK   70  A    between atoms: _201  and  _203
REMARK   71  A    between atoms: _203  and  _204
REMARK   72  A    between atoms: _203  and  _206
REMARK   73  A    between atoms: _206  and  _207
REMARK   74  A    between atoms: _210  and  _212
REMARK   75  A    between atoms: _212  and  _213
REMARK   76  A    between atoms: _212  and  _215
REMARK   77  A    between atoms: _215  and  _216
REMARK   78  A    between atoms: _219  and  _221
REMARK   79  A    between atoms: _221  and  _222
REMARK   80  A    between atoms: _221  and  _224
REMARK   81  A    between atoms: _224  and  _225
REMARK   82  A    between atoms: _231  and  _233
REMARK   83  A    between atoms: _233  and  _234
REMARK   84  A    between atoms: _233  and  _236
REMARK   85  A    between atoms: _236  and  _237
REMARK   86  A    between atoms: _242  and  _243
REMARK   87  A    between atoms: _245  and  _247
REMARK   88  A    between atoms: _247  and  _248
REMARK   89  A    between atoms: _247  and  _250
REMARK   90  A    between atoms: _250  and  _251
REMARK   91  A    between atoms: _254  and  _256
REMARK   92  A    between atoms: _256  and  _257
REMARK   93  A    between atoms: _256  and  _259
REMARK   94  A    between atoms: _259  and  _260
REMARK   95  A    between atoms: _270  and  _272
REMARK   96  A    between atoms: _272  and  _273
REMARK   97  A    between atoms: _272  and  _275
REMARK   98  A    between atoms: _275  and  _276
REMARK   99  A    between atoms: _281  and  _283
REMARK  100  A    between atoms: _283  and  _284
REMARK  101  A    between atoms: _283  and  _286
REMARK  102  A    between atoms: _286  and  _287
REMARK  103  A    between atoms: _291  and  ZN_414
REMARK  104  A    between atoms: _292  and  _294
REMARK  105  A    between atoms: _294  and  _295
REMARK  106  A    between atoms: _294  and  _297
REMARK  107  A    between atoms: _297  and  _298
REMARK  108  A    between atoms: _301  and  _303
REMARK  109  A    between atoms: _303  and  _304
REMARK  110  A    between atoms: _306  and  _308
REMARK  111  A    between atoms: _308  and  _309
REMARK  112  A    between atoms: _308  and  _311
REMARK  113  A    between atoms: _311  and  _312
REMARK  114  A    between atoms: _315  and  _317
REMARK  115  A    between atoms: _317  and  _318
REMARK  116  A    between atoms: _317  and  _320
REMARK  117  A    between atoms: _320  and  _321
REMARK  118  A    between atoms: _324  and  _326
REMARK  119  A    between atoms: _326  and  _327
REMARK  120  A    between atoms: _330  and  _332
REMARK  121  A    between atoms: _332  and  _333
REMARK  122  A    between atoms: _336  and  _338
REMARK  123  A    between atoms: _338  and  _339
REMARK  124  A    between atoms: _338  and  _341
REMARK  125  A    between atoms: _341  and  _342
REMARK  126  A    between atoms: _347  and  _348
REMARK  127  A    between atoms: _350  and  _352
REMARK  128  A    between atoms: _352  and  _353
REMARK  129  A    between atoms: _352  and  _355
REMARK  130  A    between atoms: _355  and  _356
REMARK  131  A    between atoms: _359  and  _361
REMARK  132  A    between atoms: _361  and  _362
REMARK  133  A    between atoms: _361  and  _364
REMARK  134  A    between atoms: _364  and  _365
REMARK  135  A    between atoms: _368  and  _370
REMARK  136  A    between atoms: _370  and  _371
REMARK  137  A    between atoms: _370  and  _373
REMARK  138  A    between atoms: _373  and  _374
REMARK  139  A    between atoms: _374  and  _375
REMARK  140  A    between atoms: _378  and  _380
REMARK  141  A    between atoms: _380  and  _381
REMARK  142  A    between atoms: _380  and  _383
REMARK  143  A    between atoms: _383  and  _384
REMARK  144  A    between atoms: _384  and  _385
REMARK  145  A    between atoms: _385  and  _386
REMARK  146  A    between atoms: _395  and  _397
REMARK  147  A    between atoms: _397  and  _398
REMARK  148  A    between atoms: _400  and  _402
REMARK  149  A    between atoms: _402  and  _403
REMARK  150  A    between atoms: _402  and  _405
REMARK  151  A    between atoms: _405  and  _406
REMARK  152  A    between atoms: _409  and  _411
REMARK  153  A    between atoms: _411  and  _412
REMARK                            x       y       z     vdW  Elec       q    Type
REMARK                         _______ _______ _______ _____ _____    ______ ____
ROOT
ATOM      1  O   HOH     1      34.647  70.553  13.186  0.00  0.00    +0.000 OA
ENDROOT
TORSDOF 0
REMARK  Name = ../refined-set-2016/1ps3/1ps3_pocket.pdb
REMARK  153 active torsions:
REMARK  status: ('A' for Active; 'I' for Inactive)
REMARK    1  A    between atoms: _1  and  _3
REMARK    2  A    between atoms: _14  and  _17
REMARK    3  A    between atoms: _17  and  _18
REMARK    4  A    between atoms: _25  and  _26
REMARK    5  A    between atoms: _33  and  _34
REMARK    6  A    between atoms: _39  and  _41
REMARK    7  A    between atoms: _41  and  _42
REMARK    8  A    between atoms: _44  and  _46
REMARK    9  A    between atoms: _46  and  _47
REMARK   10  A    between atoms: _46  and  _49
REMARK   11  A    between atoms: _49  and  _50
REMARK   12  A    between atoms: _60  and  _62
REMARK   13  A    between atoms: _62  and  _63
REMARK   14  A    between atoms: _62  and  _65
REMARK   15  A    between atoms: _65  and  _66
REMARK   16  A    between atoms: _69  and  _71
REMARK   17  A    between atoms: _71  and  _72
REMARK   18  A    between atoms: _71  and  _74
REMARK   19  A    between atoms: _74  and  _75
REMARK   20  A    between atoms: _80  and  _81
REMARK   21  A    between atoms: _83  and  _85
REMARK   22  A    between atoms: _85  and  _86
REMARK   23  A    between atoms: _85  and  _88
REMARK   24  A    between atoms: _88  and  _89
REMARK   25  A    between atoms: _89  and  _90
REMARK   26  A    between atoms: _93  and  _95
REMARK   27  A    between atoms: _95  and  _96
REMARK   28  A    between atoms: _95  and  _98
REMARK   29  A    between atoms: _98  and  _99
REMARK   30  A    between atoms: _99  and  _100
REMARK   31  A    between atoms: _102  and  _104
REMARK   32  A    between atoms: _104  and  _105
REMARK   33  A    between atoms: _104  and  _107
REMARK   34  A    between atoms: _107  and  _108
REMARK   35  A    between atoms: _111  and  _113
REMARK   36  A    between atoms: _113  and  _114
REMARK   37  A    between atoms: _113  and  _116
REMARK   38  A    between atoms: _116  and  _117
REMARK   39  A    between atoms: _117  and  _118
REMARK   40  A    between atoms: _118  and  ZN_414
REMARK   41  A    between atoms: _121  and  _122
REMARK   42  A    between atoms: _127  and  _129
REMARK   43  A    between atoms: _129  and  _130
REMARK   44  A    between atoms: _129  and  _132
REMARK   45  A    between atoms: _132  and  _133
REMARK   46  A    between atoms: _139  and  _141
REMARK   47  A    between atoms: _141  and  _142
REMARK   48  A    between atoms: _141  and  _144
REMARK   49  A    between atoms: _144  and  _145
REMARK   50  A    between atoms: _145  and  _146
REMARK   51  A    between atoms: _146  and  _147
REMARK   52  A    between atoms: _156  and  _158
REMARK   53  A    between atoms: _158  and  _159
REMARK   54  A    between atoms: _158  and  _161
REMARK   55  A    between atoms: _161  and  _162
REMARK   56  A    between atoms: _167  and  _168
REMARK   57  A    between atoms: _170  and  _172
REMARK   58  A    between atoms: _172  and  _173
REMARK   59  A    between atoms: _172  and  _175
REMARK   60  A    between atoms: _175  and  _176
REMARK   61  A    between atoms: _178  and  _180
REMARK   62  A    between atoms: _180  and  _181
REMARK   63  A    between atoms: _180  and  _183
REMARK   64  A    between atoms: _183  and  _184
REMARK   65  A    between atoms: _189  and  _190
REMARK   66  A    between atoms: _192  and  _194
REMARK   67  A    between atoms: _194  and  _195
REMARK   68  A    between atoms: _194  and  _197
REMARK   69  A    between atoms: _197  and  _198
REMARK   70  A    between atoms: _201  and  _203
REMARK   71  A    between atoms: _203  and  _204
REMARK   72  A    between atoms: _203  and  _206
REMARK   73  A    between atoms: _206  and  _207
REMARK   74  A    between atoms: _210  and  _212
REMARK   75  A    between atoms: _212  and  _213
REMARK   76  A    between atoms: _212  and  _215
REMARK   77  A    between atoms: _215  and  _216
REMARK   78  A    between atoms: _219  and  _221
REMARK   79  A    between atoms: _221  and  _222
REMARK   80  A    between atoms: _221  and  _224
REMARK   81  A    between atoms: _224  and  _225
REMARK   82  A    between atoms: _231  and  _233
REMARK   83  A    between atoms: _233  and  _234
REMARK   84  A    between atoms: _233  and  _236
REMARK   85  A    between atoms: _236  and  _237
REMARK   86  A    between atoms: _242  and  _243
REMARK   87  A    between atoms: _245  and  _247
REMARK   88  A    between atoms: _247  and  _248
REMARK   89  A    between atoms: _247  and  _250
REMARK   90  A    between atoms: _250  and  _251
REMARK   91  A    between atoms: _254  and  _256
REMARK   92  A    between atoms: _256  and  _257
REMARK   93  A    between atoms: _256  and  _259
REMARK   94  A    between atoms: _259  and  _260
REMARK   95  A    between atoms: _270  and  _272
REMARK   96  A    between atoms: _272  and  _273
REMARK   97  A    between atoms: _272  and  _275
REMARK   98  A    between atoms: _275  and  _276
REMARK   99  A    between atoms: _281  and  _283
REMARK  100  A    between atoms: _283  and  _284
REMARK  101  A    between atoms: _283  and  _286
REMARK  102  A    between atoms: _286  and  _287
REMARK  103  A    between atoms: _291  and  ZN_414
REMARK  104  A    between atoms: _292  and  _294
REMARK  105  A    between atoms: _294  and  _295
REMARK  106  A    between atoms: _294  and  _297
REMARK  107  A    between atoms: _297  and  _298
REMARK  108  A    between atoms: _301  and  _303
REMARK  109  A    between atoms: _303  and  _304
REMARK  110  A    between atoms: _306  and  _308
REMARK  111  A    between atoms: _308  and  _309
REMARK  112  A    between atoms: _308  and  _311
REMARK  113  A    between atoms: _311  and  _312
REMARK  114  A    between atoms: _315  and  _317
REMARK  115  A    between atoms: _317  and  _318
REMARK  116  A    between atoms: _317  and  _320
REMARK  117  A    between atoms: _320  and  _321
REMARK  118  A    between atoms: _324  and  _326
REMARK  119  A    between atoms: _326  and  _327
REMARK  120  A    between atoms: _330  and  _332
REMARK  121  A    between atoms: _332  and  _333
REMARK  122  A    between atoms: _336  and  _338
REMARK  123  A    between atoms: _338  and  _339
REMARK  124  A    between atoms: _338  and  _341
REMARK  125  A    between atoms: _341  and  _342
REMARK  126  A    between atoms: _347  and  _348
REMARK  127  A    between atoms: _350  and  _352
REMARK  128  A    between atoms: _352  and  _353
REMARK  129  A    between atoms: _352  and  _355
REMARK  130  A    between atoms: _355  and  _356
REMARK  131  A    between atoms: _359  and  _361
REMARK  132  A    between atoms: _361  and  _362
REMARK  133  A    between atoms: _361  and  _364
REMARK  134  A    between atoms: _364  and  _365
REMARK  135  A    between atoms: _368  and  _370
REMARK  136  A    between atoms: _370  and  _371
REMARK  137  A    between atoms: _370  and  _373
REMARK  138  A    between atoms: _373  and  _374
REMARK  139  A    between atoms: _374  and  _375
REMARK  140  A    between atoms: _378  and  _380
REMARK  141  A    between atoms: _380  and  _381
REMARK  142  A    between atoms: _380  and  _383
REMARK  143  A    between atoms: _383  and  _384
REMARK  144  A    between atoms: _384  and  _385
REMARK  145  A    between atoms: _385  and  _386
REMARK  146  A    between atoms: _395  and  _397
REMARK  147  A    between atoms: _397  and  _398
REMARK  148  A    between atoms: _400  and  _402
REMARK  149  A    between atoms: _402  and  _403
REMARK  150  A    between atoms: _402  and  _405
REMARK  151  A    between atoms: _405  and  _406
REMARK  152  A    between atoms: _409  and  _411
REMARK  153  A    between atoms: _411  and  _412
REMARK                            x       y       z     vdW  Elec       q    Type
REMARK                         _______ _______ _______ _____ _____    ______ ____
ROOT
ATOM      1  O   HOH     1      34.346  67.795  12.461  0.00  0.00    +0.000 OA
ENDROOT
TORSDOF 0
REMARK  Name = ../refined-set-2016/1ps3/1ps3_pocket.pdb
REMARK  153 active torsions:
REMARK  status: ('A' for Active; 'I' for Inactive)
REMARK    1  A    between atoms: _1  and  _3
REMARK    2  A    between atoms: _14  and  _17
REMARK    3  A    between atoms: _17  and  _18
REMARK    4  A    between atoms: _25  and  _26
REMARK    5  A    between atoms: _33  and  _34
REMARK    6  A    between atoms: _39  and  _41
REMARK    7  A    between atoms: _41  and  _42
REMARK    8  A    between atoms: _44  and  _46
REMARK    9  A    between atoms: _46  and  _47
REMARK   10  A    between atoms: _46  and  _49
REMARK   11  A    between atoms: _49  and  _50
REMARK   12  A    between atoms: _60  and  _62
REMARK   13  A    between atoms: _62  and  _63
REMARK   14  A    between atoms: _62  and  _65
REMARK   15  A    between atoms: _65  and  _66
REMARK   16  A    between atoms: _69  and  _71
REMARK   17  A    between atoms: _71  and  _72
REMARK   18  A    between atoms: _71  and  _74
REMARK   19  A    between atoms: _74  and  _75
REMARK   20  A    between atoms: _80  and  _81
REMARK   21  A    between atoms: _83  and  _85
REMARK   22  A    between atoms: _85  and  _86
REMARK   23  A    between atoms: _85  and  _88
REMARK   24  A    between atoms: _88  and  _89
REMARK   25  A    between atoms: _89  and  _90
REMARK   26  A    between atoms: _93  and  _95
REMARK   27  A    between atoms: _95  and  _96
REMARK   28  A    between atoms: _95  and  _98
REMARK   29  A    between atoms: _98  and  _99
REMARK   30  A    between atoms: _99  and  _100
REMARK   31  A    between atoms: _102  and  _104
REMARK   32  A    between atoms: _104  and  _105
REMARK   33  A    between atoms: _104  and  _107
REMARK   34  A    between atoms: _107  and  _108
REMARK   35  A    between atoms: _111  and  _113
REMARK   36  A    between atoms: _113  and  _114
REMARK   37  A    between atoms: _113  and  _116
REMARK   38  A    between atoms: _116  and  _117
REMARK   39  A    between atoms: _117  and  _118
REMARK   40  A    between atoms: _118  and  ZN_414
REMARK   41  A    between atoms: _121  and  _122
REMARK   42  A    between atoms: _127  and  _129
REMARK   43  A    between atoms: _129  and  _130
REMARK   44  A    between atoms: _129  and  _132
REMARK   45  A    between atoms: _132  and  _133
REMARK   46  A    between atoms: _139  and  _141
REMARK   47  A    between atoms: _141  and  _142
REMARK   48  A    between atoms: _141  and  _144
REMARK   49  A    between atoms: _144  and  _145
REMARK   50  A    between atoms: _145  and  _146
REMARK   51  A    between atoms: _146  and  _147
REMARK   52  A    between atoms: _156  and  _158
REMARK   53  A    between atoms: _158  and  _159
REMARK   54  A    between atoms: _158  and  _161
REMARK   55  A    between atoms: _161  and  _162
REMARK   56  A    between atoms: _167  and  _168
REMARK   57  A    between atoms: _170  and  _172
REMARK   58  A    between atoms: _172  and  _173
REMARK   59  A    between atoms: _172  and  _175
REMARK   60  A    between atoms: _175  and  _176
REMARK   61  A    between atoms: _178  and  _180
REMARK   62  A    between atoms: _180  and  _181
REMARK   63  A    between atoms: _180  and  _183
REMARK   64  A    between atoms: _183  and  _184
REMARK   65  A    between atoms: _189  and  _190
REMARK   66  A    between atoms: _192  and  _194
REMARK   67  A    between atoms: _194  and  _195
REMARK   68  A    between atoms: _194  and  _197
REMARK   69  A    between atoms: _197  and  _198
REMARK   70  A    between atoms: _201  and  _203
REMARK   71  A    between atoms: _203  and  _204
REMARK   72  A    between atoms: _203  and  _206
REMARK   73  A    between atoms: _206  and  _207
REMARK   74  A    between atoms: _210  and  _212
REMARK   75  A    between atoms: _212  and  _213
REMARK   76  A    between atoms: _212  and  _215
REMARK   77  A    between atoms: _215  and  _216
REMARK   78  A    between atoms: _219  and  _221
REMARK   79  A    between atoms: _221  and  _222
REMARK   80  A    between atoms: _221  and  _224
REMARK   81  A    between atoms: _224  and  _225
REMARK   82  A    between atoms: _231  and  _233
REMARK   83  A    between atoms: _233  and  _234
REMARK   84  A    between atoms: _233  and  _236
REMARK   85  A    between atoms: _236  and  _237
REMARK   86  A    between atoms: _242  and  _243
REMARK   87  A    between atoms: _245  and  _247
REMARK   88  A    between atoms: _247  and  _248
REMARK   89  A    between atoms: _247  and  _250
REMARK   90  A    between atoms: _250  and  _251
REMARK   91  A    between atoms: _254  and  _256
REMARK   92  A    between atoms: _256  and  _257
REMARK   93  A    between atoms: _256  and  _259
REMARK   94  A    between atoms: _259  and  _260
REMARK   95  A    between atoms: _270  and  _272
REMARK   96  A    between atoms: _272  and  _273
REMARK   97  A    between atoms: _272  and  _275
REMARK   98  A    between atoms: _275  and  _276
REMARK   99  A    between atoms: _281  and  _283
REMARK  100  A    between atoms: _283  and  _284
REMARK  101  A    between atoms: _283  and  _286
REMARK  102  A    between atoms: _286  and  _287
REMARK  103  A    between atoms: _291  and  ZN_414
REMARK  104  A    between atoms: _292  and  _294
REMARK  105  A    between atoms: _294  and  _295
REMARK  106  A    between atoms: _294  and  _297
REMARK  107  A    between atoms: _297  and  _298
REMARK  108  A    between atoms: _301  and  _303
REMARK  109  A    between atoms: _303  and  _304
REMARK  110  A    between atoms: _306  and  _308
REMARK  111  A    between atoms: _308  and  _309
REMARK  112  A    between atoms: _308  and  _311
REMARK  113  A    between atoms: _311  and  _312
REMARK  114  A    between atoms: _315  and  _317
REMARK  115  A    between atoms: _317  and  _318
REMARK  116  A    between atoms: _317  and  _320
REMARK  117  A    between atoms: _320  and  _321
REMARK  118  A    between atoms: _324  and  _326
REMARK  119  A    between atoms: _326  and  _327
REMARK  120  A    between atoms: _330  and  _332
REMARK  121  A    between atoms: _332  and  _333
REMARK  122  A    between atoms: _336  and  _338
REMARK  123  A    between atoms: _338  and  _339
REMARK  124  A    between atoms: _338  and  _341
REMARK  125  A    between atoms: _341  and  _342
REMARK  126  A    between atoms: _347  and  _348
REMARK  127  A    between atoms: _350  and  _352
REMARK  128  A    between atoms: _352  and  _353
REMARK  129  A    between atoms: _352  and  _355
REMARK  130  A    between atoms: _355  and  _356
REMARK  131  A    between atoms: _359  and  _361
REMARK  132  A    between atoms: _361  and  _362
REMARK  133  A    between atoms: _361  and  _364
REMARK  134  A    between atoms: _364  and  _365
REMARK  135  A    between atoms: _368  and  _370
REMARK  136  A    between atoms: _370  and  _371
REMARK  137  A    between atoms: _370  and  _373
REMARK  138  A    between atoms: _373  and  _374
REMARK  139  A    between atoms: _374  and  _375
REMARK  140  A    between atoms: _378  and  _380
REMARK  141  A    between atoms: _380  and  _381
REMARK  142  A    between atoms: _380  and  _383
REMARK  143  A    between atoms: _383  and  _384
REMARK  144  A    between atoms: _384  and  _385
REMARK  145  A    between atoms: _385  and  _386
REMARK  146  A    between atoms: _395  and  _397
REMARK  147  A    between atoms: _397  and  _398
REMARK  148  A    between atoms: _400  and  _402
REMARK  149  A    between atoms: _402  and  _403
REMARK  150  A    between atoms: _402  and  _405
REMARK  151  A    between atoms: _405  and  _406
REMARK  152  A    between atoms: _409  and  _411
REMARK  153  A    between atoms: _411  and  _412
REMARK                            x       y       z     vdW  Elec       q    Type
REMARK                         _______ _______ _______ _____ _____    ______ ____
ROOT
ATOM      1  O   HOH     1      28.870  65.140  19.783  0.00  0.00    +0.000 OA
ENDROOT
TORSDOF 0
REMARK  Name = ../refined-set-2016/1ps3/1ps3_pocket.pdb
REMARK  153 active torsions:
REMARK  status: ('A' for Active; 'I' for Inactive)
REMARK    1  A    between atoms: _1  and  _3
REMARK    2  A    between atoms: _14  and  _17
REMARK    3  A    between atoms: _17  and  _18
REMARK    4  A    between atoms: _25  and  _26
REMARK    5  A    between atoms: _33  and  _34
REMARK    6  A    between atoms: _39  and  _41
REMARK    7  A    between atoms: _41  and  _42
REMARK    8  A    between atoms: _44  and  _46
REMARK    9  A    between atoms: _46  and  _47
REMARK   10  A    between atoms: _46  and  _49
REMARK   11  A    between atoms: _49  and  _50
REMARK   12  A    between atoms: _60  and  _62
REMARK   13  A    between atoms: _62  and  _63
REMARK   14  A    between atoms: _62  and  _65
REMARK   15  A    between atoms: _65  and  _66
REMARK   16  A    between atoms: _69  and  _71
REMARK   17  A    between atoms: _71  and  _72
REMARK   18  A    between atoms: _71  and  _74
REMARK   19  A    between atoms: _74  and  _75
REMARK   20  A    between atoms: _80  and  _81
REMARK   21  A    between atoms: _83  and  _85
REMARK   22  A    between atoms: _85  and  _86
REMARK   23  A    between atoms: _85  and  _88
REMARK   24  A    between atoms: _88  and  _89
REMARK   25  A    between atoms: _89  and  _90
REMARK   26  A    between atoms: _93  and  _95
REMARK   27  A    between atoms: _95  and  _96
REMARK   28  A    between atoms: _95  and  _98
REMARK   29  A    between atoms: _98  and  _99
REMARK   30  A    between atoms: _99  and  _100
REMARK   31  A    between atoms: _102  and  _104
REMARK   32  A    between atoms: _104  and  _105
REMARK   33  A    between atoms: _104  and  _107
REMARK   34  A    between atoms: _107  and  _108
REMARK   35  A    between atoms: _111  and  _113
REMARK   36  A    between atoms: _113  and  _114
REMARK   37  A    between atoms: _113  and  _116
REMARK   38  A    between atoms: _116  and  _117
REMARK   39  A    between atoms: _117  and  _118
REMARK   40  A    between atoms: _118  and  ZN_414
REMARK   41  A    between atoms: _121  and  _122
REMARK   42  A    between atoms: _127  and  _129
REMARK   43  A    between atoms: _129  and  _130
REMARK   44  A    between atoms: _129  and  _132
REMARK   45  A    between atoms: _132  and  _133
REMARK   46  A    between atoms: _139  and  _141
REMARK   47  A    between atoms: _141  and  _142
REMARK   48  A    between atoms: _141  and  _144
REMARK   49  A    between atoms: _144  and  _145
REMARK   50  A    between atoms: _145  and  _146
REMARK   51  A    between atoms: _146  and  _147
REMARK   52  A    between atoms: _156  and  _158
REMARK   53  A    between atoms: _158  and  _159
REMARK   54  A    between atoms: _158  and  _161
REMARK   55  A    between atoms: _161  and  _162
REMARK   56  A    between atoms: _167  and  _168
REMARK   57  A    between atoms: _170  and  _172
REMARK   58  A    between atoms: _172  and  _173
REMARK   59  A    between atoms: _172  and  _175
REMARK   60  A    between atoms: _175  and  _176
REMARK   61  A    between atoms: _178  and  _180
REMARK   62  A    between atoms: _180  and  _181
REMARK   63  A    between atoms: _180  and  _183
REMARK   64  A    between atoms: _183  and  _184
REMARK   65  A    between atoms: _189  and  _190
REMARK   66  A    between atoms: _192  and  _194
REMARK   67  A    between atoms: _194  and  _195
REMARK   68  A    between atoms: _194  and  _197
REMARK   69  A    between atoms: _197  and  _198
REMARK   70  A    between atoms: _201  and  _203
REMARK   71  A    between atoms: _203  and  _204
REMARK   72  A    between atoms: _203  and  _206
REMARK   73  A    between atoms: _206  and  _207
REMARK   74  A    between atoms: _210  and  _212
REMARK   75  A    between atoms: _212  and  _213
REMARK   76  A    between atoms: _212  and  _215
REMARK   77  A    between atoms: _215  and  _216
REMARK   78  A    between atoms: _219  and  _221
REMARK   79  A    between atoms: _221  and  _222
REMARK   80  A    between atoms: _221  and  _224
REMARK   81  A    between atoms: _224  and  _225
REMARK   82  A    between atoms: _231  and  _233
REMARK   83  A    between atoms: _233  and  _234
REMARK   84  A    between atoms: _233  and  _236
REMARK   85  A    between atoms: _236  and  _237
REMARK   86  A    between atoms: _242  and  _243
REMARK   87  A    between atoms: _245  and  _247
REMARK   88  A    between atoms: _247  and  _248
REMARK   89  A    between atoms: _247  and  _250
REMARK   90  A    between atoms: _250  and  _251
REMARK   91  A    between atoms: _254  and  _256
REMARK   92  A    between atoms: _256  and  _257
REMARK   93  A    between atoms: _256  and  _259
REMARK   94  A    between atoms: _259  and  _260
REMARK   95  A    between atoms: _270  and  _272
REMARK   96  A    between atoms: _272  and  _273
REMARK   97  A    between atoms: _272  and  _275
REMARK   98  A    between atoms: _275  and  _276
REMARK   99  A    between atoms: _281  and  _283
REMARK  100  A    between atoms: _283  and  _284
REMARK  101  A    between atoms: _283  and  _286
REMARK  102  A    between atoms: _286  and  _287
REMARK  103  A    between atoms: _291  and  ZN_414
REMARK  104  A    between atoms: _292  and  _294
REMARK  105  A    between atoms: _294  and  _295
REMARK  106  A    between atoms: _294  and  _297
REMARK  107  A    between atoms: _297  and  _298
REMARK  108  A    between atoms: _301  and  _303
REMARK  109  A    between atoms: _303  and  _304
REMARK  110  A    between atoms: _306  and  _308
REMARK  111  A    between atoms: _308  and  _309
REMARK  112  A    between atoms: _308  and  _311
REMARK  113  A    between atoms: _311  and  _312
REMARK  114  A    between atoms: _315  and  _317
REMARK  115  A    between atoms: _317  and  _318
REMARK  116  A    between atoms: _317  and  _320
REMARK  117  A    between atoms: _320  and  _321
REMARK  118  A    between atoms: _324  and  _326
REMARK  119  A    between atoms: _326  and  _327
REMARK  120  A    between atoms: _330  and  _332
REMARK  121  A    between atoms: _332  and  _333
REMARK  122  A    between atoms: _336  and  _338
REMARK  123  A    between atoms: _338  and  _339
REMARK  124  A    between atoms: _338  and  _341
REMARK  125  A    between atoms: _341  and  _342
REMARK  126  A    between atoms: _347  and  _348
REMARK  127  A    between atoms: _350  and  _352
REMARK  128  A    between atoms: _352  and  _353
REMARK  129  A    between atoms: _352  and  _355
REMARK  130  A    between atoms: _355  and  _356
REMARK  131  A    between atoms: _359  and  _361
REMARK  132  A    between atoms: _361  and  _362
REMARK  133  A    between atoms: _361  and  _364
REMARK  134  A    between atoms: _364  and  _365
REMARK  135  A    between atoms: _368  and  _370
REMARK  136  A    between atoms: _370  and  _371
REMARK  137  A    between atoms: _370  and  _373
REMARK  138  A    between atoms: _373  and  _374
REMARK  139  A    between atoms: _374  and  _375
REMARK  140  A    between atoms: _378  and  _380
REMARK  141  A    between atoms: _380  and  _381
REMARK  142  A    between atoms: _380  and  _383
REMARK  143  A    between atoms: _383  and  _384
REMARK  144  A    between atoms: _384  and  _385
REMARK  145  A    between atoms: _385  and  _386
REMARK  146  A    between atoms: _395  and  _397
REMARK  147  A    between atoms: _397  and  _398
REMARK  148  A    between atoms: _400  and  _402
REMARK  149  A    between atoms: _402  and  _403
REMARK  150  A    between atoms: _402  and  _405
REMARK  151  A    between atoms: _405  and  _406
REMARK  152  A    between atoms: _409  and  _411
REMARK  153  A    between atoms: _411  and  _412
REMARK                            x       y       z     vdW  Elec       q    Type
REMARK                         _______ _______ _______ _____ _____    ______ ____
ROOT
ATOM      1  O   HOH     1      27.362  61.162  10.379  0.00  0.00    +0.000 OA
ENDROOT
TORSDOF 0
REMARK  Name = ../refined-set-2016/1ps3/1ps3_pocket.pdb
REMARK  153 active torsions:
REMARK  status: ('A' for Active; 'I' for Inactive)
REMARK    1  A    between atoms: _1  and  _3
REMARK    2  A    between atoms: _14  and  _17
REMARK    3  A    between atoms: _17  and  _18
REMARK    4  A    between atoms: _25  and  _26
REMARK    5  A    between atoms: _33  and  _34
REMARK    6  A    between atoms: _39  and  _41
REMARK    7  A    between atoms: _41  and  _42
REMARK    8  A    between atoms: _44  and  _46
REMARK    9  A    between atoms: _46  and  _47
REMARK   10  A    between atoms: _46  and  _49
REMARK   11  A    between atoms: _49  and  _50
REMARK   12  A    between atoms: _60  and  _62
REMARK   13  A    between atoms: _62  and  _63
REMARK   14  A    between atoms: _62  and  _65
REMARK   15  A    between atoms: _65  and  _66
REMARK   16  A    between atoms: _69  and  _71
REMARK   17  A    between atoms: _71  and  _72
REMARK   18  A    between atoms: _71  and  _74
REMARK   19  A    between atoms: _74  and  _75
REMARK   20  A    between atoms: _80  and  _81
REMARK   21  A    between atoms: _83  and  _85
REMARK   22  A    between atoms: _85  and  _86
REMARK   23  A    between atoms: _85  and  _88
REMARK   24  A    between atoms: _88  and  _89
REMARK   25  A    between atoms: _89  and  _90
REMARK   26  A    between atoms: _93  and  _95
REMARK   27  A    between atoms: _95  and  _96
REMARK   28  A    between atoms: _95  and  _98
REMARK   29  A    between atoms: _98  and  _99
REMARK   30  A    between atoms: _99  and  _100
REMARK   31  A    between atoms: _102  and  _104
REMARK   32  A    between atoms: _104  and  _105
REMARK   33  A    between atoms: _104  and  _107
REMARK   34  A    between atoms: _107  and  _108
REMARK   35  A    between atoms: _111  and  _113
REMARK   36  A    between atoms: _113  and  _114
REMARK   37  A    between atoms: _113  and  _116
REMARK   38  A    between atoms: _116  and  _117
REMARK   39  A    between atoms: _117  and  _118
REMARK   40  A    between atoms: _118  and  ZN_414
REMARK   41  A    between atoms: _121  and  _122
REMARK   42  A    between atoms: _127  and  _129
REMARK   43  A    between atoms: _129  and  _130
REMARK   44  A    between atoms: _129  and  _132
REMARK   45  A    between atoms: _132  and  _133
REMARK   46  A    between atoms: _139  and  _141
REMARK   47  A    between atoms: _141  and  _142
REMARK   48  A    between atoms: _141  and  _144
REMARK   49  A    between atoms: _144  and  _145
REMARK   50  A    between atoms: _145  and  _146
REMARK   51  A    between atoms: _146  and  _147
REMARK   52  A    between atoms: _156  and  _158
REMARK   53  A    between atoms: _158  and  _159
REMARK   54  A    between atoms: _158  and  _161
REMARK   55  A    between atoms: _161  and  _162
REMARK   56  A    between atoms: _167  and  _168
REMARK   57  A    between atoms: _170  and  _172
REMARK   58  A    between atoms: _172  and  _173
REMARK   59  A    between atoms: _172  and  _175
REMARK   60  A    between atoms: _175  and  _176
REMARK   61  A    between atoms: _178  and  _180
REMARK   62  A    between atoms: _180  and  _181
REMARK   63  A    between atoms: _180  and  _183
REMARK   64  A    between atoms: _183  and  _184
REMARK   65  A    between atoms: _189  and  _190
REMARK   66  A    between atoms: _192  and  _194
REMARK   67  A    between atoms: _194  and  _195
REMARK   68  A    between atoms: _194  and  _197
REMARK   69  A    between atoms: _197  and  _198
REMARK   70  A    between atoms: _201  and  _203
REMARK   71  A    between atoms: _203  and  _204
REMARK   72  A    between atoms: _203  and  _206
REMARK   73  A    between atoms: _206  and  _207
REMARK   74  A    between atoms: _210  and  _212
REMARK   75  A    between atoms: _212  and  _213
REMARK   76  A    between atoms: _212  and  _215
REMARK   77  A    between atoms: _215  and  _216
REMARK   78  A    between atoms: _219  and  _221
REMARK   79  A    between atoms: _221  and  _222
REMARK   80  A    between atoms: _221  and  _224
REMARK   81  A    between atoms: _224  and  _225
REMARK   82  A    between atoms: _231  and  _233
REMARK   83  A    between atoms: _233  and  _234
REMARK   84  A    between atoms: _233  and  _236
REMARK   85  A    between atoms: _236  and  _237
REMARK   86  A    between atoms: _242  and  _243
REMARK   87  A    between atoms: _245  and  _247
REMARK   88  A    between atoms: _247  and  _248
REMARK   89  A    between atoms: _247  and  _250
REMARK   90  A    between atoms: _250  and  _251
REMARK   91  A    between atoms: _254  and  _256
REMARK   92  A    between atoms: _256  and  _257
REMARK   93  A    between atoms: _256  and  _259
REMARK   94  A    between atoms: _259  and  _260
REMARK   95  A    between atoms: _270  and  _272
REMARK   96  A    between atoms: _272  and  _273
REMARK   97  A    between atoms: _272  and  _275
REMARK   98  A    between atoms: _275  and  _276
REMARK   99  A    between atoms: _281  and  _283
REMARK  100  A    between atoms: _283  and  _284
REMARK  101  A    between atoms: _283  and  _286
REMARK  102  A    between atoms: _286  and  _287
REMARK  103  A    between atoms: _291  and  ZN_414
REMARK  104  A    between atoms: _292  and  _294
REMARK  105  A    between atoms: _294  and  _295
REMARK  106  A    between atoms: _294  and  _297
REMARK  107  A    between atoms: _297  and  _298
REMARK  108  A    between atoms: _301  and  _303
REMARK  109  A    between atoms: _303  and  _304
REMARK  110  A    between atoms: _306  and  _308
REMARK  111  A    between atoms: _308  and  _309
REMARK  112  A    between atoms: _308  and  _311
REMARK  113  A    between atoms: _311  and  _312
REMARK  114  A    between atoms: _315  and  _317
REMARK  115  A    between atoms: _317  and  _318
REMARK  116  A    between atoms: _317  and  _320
REMARK  117  A    between atoms: _320  and  _321
REMARK  118  A    between atoms: _324  and  _326
REMARK  119  A    between atoms: _326  and  _327
REMARK  120  A    between atoms: _330  and  _332
REMARK  121  A    between atoms: _332  and  _333
REMARK  122  A    between atoms: _336  and  _338
REMARK  123  A    between atoms: _338  and  _339
REMARK  124  A    between atoms: _338  and  _341
REMARK  125  A    between atoms: _341  and  _342
REMARK  126  A    between atoms: _347  and  _348
REMARK  127  A    between atoms: _350  and  _352
REMARK  128  A    between atoms: _352  and  _353
REMARK  129  A    between atoms: _352  and  _355
REMARK  130  A    between atoms: _355  and  _356
REMARK  131  A    between atoms: _359  and  _361
REMARK  132  A    between atoms: _361  and  _362
REMARK  133  A    between atoms: _361  and  _364
REMARK  134  A    between atoms: _364  and  _365
REMARK  135  A    between atoms: _368  and  _370
REMARK  136  A    between atoms: _370  and  _371
REMARK  137  A    between atoms: _370  and  _373
REMARK  138  A    between atoms: _373  and  _374
REMARK  139  A    between atoms: _374  and  _375
REMARK  140  A    between atoms: _378  and  _380
REMARK  141  A    between atoms: _380  and  _381
REMARK  142  A    between atoms: _380  and  _383
REMARK  143  A    between atoms: _383  and  _384
REMARK  144  A    between atoms: _384  and  _385
REMARK  145  A    between atoms: _385  and  _386
REMARK  146  A    between atoms: _395  and  _397
REMARK  147  A    between atoms: _397  and  _398
REMARK  148  A    between atoms: _400  and  _402
REMARK  149  A    between atoms: _402  and  _403
REMARK  150  A    between atoms: _402  and  _405
REMARK  151  A    between atoms: _405  and  _406
REMARK  152  A    between atoms: _409  and  _411
REMARK  153  A    between atoms: _411  and  _412
REMARK                            x       y       z     vdW  Elec       q    Type
REMARK                         _______ _______ _______ _____ _____    ______ ____
ROOT
ATOM      1  O   HOH     1      27.544  59.337   8.659  0.00  0.00    +0.000 OA
ENDROOT
TORSDOF 0
REMARK  Name = ../refined-set-2016/1ps3/1ps3_pocket.pdb
REMARK  153 active torsions:
REMARK  status: ('A' for Active; 'I' for Inactive)
REMARK    1  A    between atoms: _1  and  _3
REMARK    2  A    between atoms: _14  and  _17
REMARK    3  A    between atoms: _17  and  _18
REMARK    4  A    between atoms: _25  and  _26
REMARK    5  A    between atoms: _33  and  _34
REMARK    6  A    between atoms: _39  and  _41
REMARK    7  A    between atoms: _41  and  _42
REMARK    8  A    between atoms: _44  and  _46
REMARK    9  A    between atoms: _46  and  _47
REMARK   10  A    between atoms: _46  and  _49
REMARK   11  A    between atoms: _49  and  _50
REMARK   12  A    between atoms: _60  and  _62
REMARK   13  A    between atoms: _62  and  _63
REMARK   14  A    between atoms: _62  and  _65
REMARK   15  A    between atoms: _65  and  _66
REMARK   16  A    between atoms: _69  and  _71
REMARK   17  A    between atoms: _71  and  _72
REMARK   18  A    between atoms: _71  and  _74
REMARK   19  A    between atoms: _74  and  _75
REMARK   20  A    between atoms: _80  and  _81
REMARK   21  A    between atoms: _83  and  _85
REMARK   22  A    between atoms: _85  and  _86
REMARK   23  A    between atoms: _85  and  _88
REMARK   24  A    between atoms: _88  and  _89
REMARK   25  A    between atoms: _89  and  _90
REMARK   26  A    between atoms: _93  and  _95
REMARK   27  A    between atoms: _95  and  _96
REMARK   28  A    between atoms: _95  and  _98
REMARK   29  A    between atoms: _98  and  _99
REMARK   30  A    between atoms: _99  and  _100
REMARK   31  A    between atoms: _102  and  _104
REMARK   32  A    between atoms: _104  and  _105
REMARK   33  A    between atoms: _104  and  _107
REMARK   34  A    between atoms: _107  and  _108
REMARK   35  A    between atoms: _111  and  _113
REMARK   36  A    between atoms: _113  and  _114
REMARK   37  A    between atoms: _113  and  _116
REMARK   38  A    between atoms: _116  and  _117
REMARK   39  A    between atoms: _117  and  _118
REMARK   40  A    between atoms: _118  and  ZN_414
REMARK   41  A    between atoms: _121  and  _122
REMARK   42  A    between atoms: _127  and  _129
REMARK   43  A    between atoms: _129  and  _130
REMARK   44  A    between atoms: _129  and  _132
REMARK   45  A    between atoms: _132  and  _133
REMARK   46  A    between atoms: _139  and  _141
REMARK   47  A    between atoms: _141  and  _142
REMARK   48  A    between atoms: _141  and  _144
REMARK   49  A    between atoms: _144  and  _145
REMARK   50  A    between atoms: _145  and  _146
REMARK   51  A    between atoms: _146  and  _147
REMARK   52  A    between atoms: _156  and  _158
REMARK   53  A    between atoms: _158  and  _159
REMARK   54  A    between atoms: _158  and  _161
REMARK   55  A    between atoms: _161  and  _162
REMARK   56  A    between atoms: _167  and  _168
REMARK   57  A    between atoms: _170  and  _172
REMARK   58  A    between atoms: _172  and  _173
REMARK   59  A    between atoms: _172  and  _175
REMARK   60  A    between atoms: _175  and  _176
REMARK   61  A    between atoms: _178  and  _180
REMARK   62  A    between atoms: _180  and  _181
REMARK   63  A    between atoms: _180  and  _183
REMARK   64  A    between atoms: _183  and  _184
REMARK   65  A    between atoms: _189  and  _190
REMARK   66  A    between atoms: _192  and  _194
REMARK   67  A    between atoms: _194  and  _195
REMARK   68  A    between atoms: _194  and  _197
REMARK   69  A    between atoms: _197  and  _198
REMARK   70  A    between atoms: _201  and  _203
REMARK   71  A    between atoms: _203  and  _204
REMARK   72  A    between atoms: _203  and  _206
REMARK   73  A    between atoms: _206  and  _207
REMARK   74  A    between atoms: _210  and  _212
REMARK   75  A    between atoms: _212  and  _213
REMARK   76  A    between atoms: _212  and  _215
REMARK   77  A    between atoms: _215  and  _216
REMARK   78  A    between atoms: _219  and  _221
REMARK   79  A    between atoms: _221  and  _222
REMARK   80  A    between atoms: _221  and  _224
REMARK   81  A    between atoms: _224  and  _225
REMARK   82  A    between atoms: _231  and  _233
REMARK   83  A    between atoms: _233  and  _234
REMARK   84  A    between atoms: _233  and  _236
REMARK   85  A    between atoms: _236  and  _237
REMARK   86  A    between atoms: _242  and  _243
REMARK   87  A    between atoms: _245  and  _247
REMARK   88  A    between atoms: _247  and  _248
REMARK   89  A    between atoms: _247  and  _250
REMARK   90  A    between atoms: _250  and  _251
REMARK   91  A    between atoms: _254  and  _256
REMARK   92  A    between atoms: _256  and  _257
REMARK   93  A    between atoms: _256  and  _259
REMARK   94  A    between atoms: _259  and  _260
REMARK   95  A    between atoms: _270  and  _272
REMARK   96  A    between atoms: _272  and  _273
REMARK   97  A    between atoms: _272  and  _275
REMARK   98  A    between atoms: _275  and  _276
REMARK   99  A    between atoms: _281  and  _283
REMARK  100  A    between atoms: _283  and  _284
REMARK  101  A    between atoms: _283  and  _286
REMARK  102  A    between atoms: _286  and  _287
REMARK  103  A    between atoms: _291  and  ZN_414
REMARK  104  A    between atoms: _292  and  _294
REMARK  105  A    between atoms: _294  and  _295
REMARK  106  A    between atoms: _294  and  _297
REMARK  107  A    between atoms: _297  and  _298
REMARK  108  A    between atoms: _301  and  _303
REMARK  109  A    between atoms: _303  and  _304
REMARK  110  A    between atoms: _306  and  _308
REMARK  111  A    between atoms: _308  and  _309
REMARK  112  A    between atoms: _308  and  _311
REMARK  113  A    between atoms: _311  and  _312
REMARK  114  A    between atoms: _315  and  _317
REMARK  115  A    between atoms: _317  and  _318
REMARK  116  A    between atoms: _317  and  _320
REMARK  117  A    between atoms: _320  and  _321
REMARK  118  A    between atoms: _324  and  _326
REMARK  119  A    between atoms: _326  and  _327
REMARK  120  A    between atoms: _330  and  _332
REMARK  121  A    between atoms: _332  and  _333
REMARK  122  A    between atoms: _336  and  _338
REMARK  123  A    between atoms: _338  and  _339
REMARK  124  A    between atoms: _338  and  _341
REMARK  125  A    between atoms: _341  and  _342
REMARK  126  A    between atoms: _347  and  _348
REMARK  127  A    between atoms: _350  and  _352
REMARK  128  A    between atoms: _352  and  _353
REMARK  129  A    between atoms: _352  and  _355
REMARK  130  A    between atoms: _355  and  _356
REMARK  131  A    between atoms: _359  and  _361
REMARK  132  A    between atoms: _361  and  _362
REMARK  133  A    between atoms: _361  and  _364
REMARK  134  A    between atoms: _364  and  _365
REMARK  135  A    between atoms: _368  and  _370
REMARK  136  A    between atoms: _370  and  _371
REMARK  137  A    between atoms: _370  and  _373
REMARK  138  A    between atoms: _373  and  _374
REMARK  139  A    between atoms: _374  and  _375
REMARK  140  A    between atoms: _378  and  _380
REMARK  141  A    between atoms: _380  and  _381
REMARK  142  A    between atoms: _380  and  _383
REMARK  143  A    between atoms: _383  and  _384
REMARK  144  A    between atoms: _384  and  _385
REMARK  145  A    between atoms: _385  and  _386
REMARK  146  A    between atoms: _395  and  _397
REMARK  147  A    between atoms: _397  and  _398
REMARK  148  A    between atoms: _400  and  _402
REMARK  149  A    between atoms: _402  and  _403
REMARK  150  A    between atoms: _402  and  _405
REMARK  151  A    between atoms: _405  and  _406
REMARK  152  A    between atoms: _409  and  _411
REMARK  153  A    between atoms: _411  and  _412
REMARK                            x       y       z     vdW  Elec       q    Type
REMARK                         _______ _______ _______ _____ _____    ______ ____
ROOT
ATOM      1  O   HOH     1      26.780  65.162   8.905  0.00  0.00    +0.000 OA
ENDROOT
TORSDOF 0
REMARK  Name = ../refined-set-2016/1ps3/1ps3_pocket.pdb
REMARK  153 active torsions:
REMARK  status: ('A' for Active; 'I' for Inactive)
REMARK    1  A    between atoms: _1  and  _3
REMARK    2  A    between atoms: _14  and  _17
REMARK    3  A    between atoms: _17  and  _18
REMARK    4  A    between atoms: _25  and  _26
REMARK    5  A    between atoms: _33  and  _34
REMARK    6  A    between atoms: _39  and  _41
REMARK    7  A    between atoms: _41  and  _42
REMARK    8  A    between atoms: _44  and  _46
REMARK    9  A    between atoms: _46  and  _47
REMARK   10  A    between atoms: _46  and  _49
REMARK   11  A    between atoms: _49  and  _50
REMARK   12  A    between atoms: _60  and  _62
REMARK   13  A    between atoms: _62  and  _63
REMARK   14  A    between atoms: _62  and  _65
REMARK   15  A    between atoms: _65  and  _66
REMARK   16  A    between atoms: _69  and  _71
REMARK   17  A    between atoms: _71  and  _72
REMARK   18  A    between atoms: _71  and  _74
REMARK   19  A    between atoms: _74  and  _75
REMARK   20  A    between atoms: _80  and  _81
REMARK   21  A    between atoms: _83  and  _85
REMARK   22  A    between atoms: _85  and  _86
REMARK   23  A    between atoms: _85  and  _88
REMARK   24  A    between atoms: _88  and  _89
REMARK   25  A    between atoms: _89  and  _90
REMARK   26  A    between atoms: _93  and  _95
REMARK   27  A    between atoms: _95  and  _96
REMARK   28  A    between atoms: _95  and  _98
REMARK   29  A    between atoms: _98  and  _99
REMARK   30  A    between atoms: _99  and  _100
REMARK   31  A    between atoms: _102  and  _104
REMARK   32  A    between atoms: _104  and  _105
REMARK   33  A    between atoms: _104  and  _107
REMARK   34  A    between atoms: _107  and  _108
REMARK   35  A    between atoms: _111  and  _113
REMARK   36  A    between atoms: _113  and  _114
REMARK   37  A    between atoms: _113  and  _116
REMARK   38  A    between atoms: _116  and  _117
REMARK   39  A    between atoms: _117  and  _118
REMARK   40  A    between atoms: _118  and  ZN_414
REMARK   41  A    between atoms: _121  and  _122
REMARK   42  A    between atoms: _127  and  _129
REMARK   43  A    between atoms: _129  and  _130
REMARK   44  A    between atoms: _129  and  _132
REMARK   45  A    between atoms: _132  and  _133
REMARK   46  A    between atoms: _139  and  _141
REMARK   47  A    between atoms: _141  and  _142
REMARK   48  A    between atoms: _141  and  _144
REMARK   49  A    between atoms: _144  and  _145
REMARK   50  A    between atoms: _145  and  _146
REMARK   51  A    between atoms: _146  and  _147
REMARK   52  A    between atoms: _156  and  _158
REMARK   53  A    between atoms: _158  and  _159
REMARK   54  A    between atoms: _158  and  _161
REMARK   55  A    between atoms: _161  and  _162
REMARK   56  A    between atoms: _167  and  _168
REMARK   57  A    between atoms: _170  and  _172
REMARK   58  A    between atoms: _172  and  _173
REMARK   59  A    between atoms: _172  and  _175
REMARK   60  A    between atoms: _175  and  _176
REMARK   61  A    between atoms: _178  and  _180
REMARK   62  A    between atoms: _180  and  _181
REMARK   63  A    between atoms: _180  and  _183
REMARK   64  A    between atoms: _183  and  _184
REMARK   65  A    between atoms: _189  and  _190
REMARK   66  A    between atoms: _192  and  _194
REMARK   67  A    between atoms: _194  and  _195
REMARK   68  A    between atoms: _194  and  _197
REMARK   69  A    between atoms: _197  and  _198
REMARK   70  A    between atoms: _201  and  _203
REMARK   71  A    between atoms: _203  and  _204
REMARK   72  A    between atoms: _203  and  _206
REMARK   73  A    between atoms: _206  and  _207
REMARK   74  A    between atoms: _210  and  _212
REMARK   75  A    between atoms: _212  and  _213
REMARK   76  A    between atoms: _212  and  _215
REMARK   77  A    between atoms: _215  and  _216
REMARK   78  A    between atoms: _219  and  _221
REMARK   79  A    between atoms: _221  and  _222
REMARK   80  A    between atoms: _221  and  _224
REMARK   81  A    between atoms: _224  and  _225
REMARK   82  A    between atoms: _231  and  _233
REMARK   83  A    between atoms: _233  and  _234
REMARK   84  A    between atoms: _233  and  _236
REMARK   85  A    between atoms: _236  and  _237
REMARK   86  A    between atoms: _242  and  _243
REMARK   87  A    between atoms: _245  and  _247
REMARK   88  A    between atoms: _247  and  _248
REMARK   89  A    between atoms: _247  and  _250
REMARK   90  A    between atoms: _250  and  _251
REMARK   91  A    between atoms: _254  and  _256
REMARK   92  A    between atoms: _256  and  _257
REMARK   93  A    between atoms: _256  and  _259
REMARK   94  A    between atoms: _259  and  _260
REMARK   95  A    between atoms: _270  and  _272
REMARK   96  A    between atoms: _272  and  _273
REMARK   97  A    between atoms: _272  and  _275
REMARK   98  A    between atoms: _275  and  _276
REMARK   99  A    between atoms: _281  and  _283
REMARK  100  A    between atoms: _283  and  _284
REMARK  101  A    between atoms: _283  and  _286
REMARK  102  A    between atoms: _286  and  _287
REMARK  103  A    between atoms: _291  and  ZN_414
REMARK  104  A    between atoms: _292  and  _294
REMARK  105  A    between atoms: _294  and  _295
REMARK  106  A    between atoms: _294  and  _297
REMARK  107  A    between atoms: _297  and  _298
REMARK  108  A    between atoms: _301  and  _303
REMARK  109  A    between atoms: _303  and  _304
REMARK  110  A    between atoms: _306  and  _308
REMARK  111  A    between atoms: _308  and  _309
REMARK  112  A    between atoms: _308  and  _311
REMARK  113  A    between atoms: _311  and  _312
REMARK  114  A    between atoms: _315  and  _317
REMARK  115  A    between atoms: _317  and  _318
REMARK  116  A    between atoms: _317  and  _320
REMARK  117  A    between atoms: _320  and  _321
REMARK  118  A    between atoms: _324  and  _326
REMARK  119  A    between atoms: _326  and  _327
REMARK  120  A    between atoms: _330  and  _332
REMARK  121  A    between atoms: _332  and  _333
REMARK  122  A    between atoms: _336  and  _338
REMARK  123  A    between atoms: _338  and  _339
REMARK  124  A    between atoms: _338  and  _341
REMARK  125  A    between atoms: _341  and  _342
REMARK  126  A    between atoms: _347  and  _348
REMARK  127  A    between atoms: _350  and  _352
REMARK  128  A    between atoms: _352  and  _353
REMARK  129  A    between atoms: _352  and  _355
REMARK  130  A    between atoms: _355  and  _356
REMARK  131  A    between atoms: _359  and  _361
REMARK  132  A    between atoms: _361  and  _362
REMARK  133  A    between atoms: _361  and  _364
REMARK  134  A    between atoms: _364  and  _365
REMARK  135  A    between atoms: _368  and  _370
REMARK  136  A    between atoms: _370  and  _371
REMARK  137  A    between atoms: _370  and  _373
REMARK  138  A    between atoms: _373  and  _374
REMARK  139  A    between atoms: _374  and  _375
REMARK  140  A    between atoms: _378  and  _380
REMARK  141  A    between atoms: _380  and  _381
REMARK  142  A    between atoms: _380  and  _383
REMARK  143  A    between atoms: _383  and  _384
REMARK  144  A    between atoms: _384  and  _385
REMARK  145  A    between atoms: _385  and  _386
REMARK  146  A    between atoms: _395  and  _397
REMARK  147  A    between atoms: _397  and  _398
REMARK  148  A    between atoms: _400  and  _402
REMARK  149  A    between atoms: _402  and  _403
REMARK  150  A    between atoms: _402  and  _405
REMARK  151  A    between atoms: _405  and  _406
REMARK  152  A    between atoms: _409  and  _411
REMARK  153  A    between atoms: _411  and  _412
REMARK                            x       y       z     vdW  Elec       q    Type
REMARK                         _______ _______ _______ _____ _____    ______ ____
ROOT
ATOM      1  O   HOH     1      20.757  68.145   8.492  0.00  0.00    +0.000 OA
ENDROOT
TORSDOF 0
REMARK  Name = ../refined-set-2016/1ps3/1ps3_pocket.pdb
REMARK  153 active torsions:
REMARK  status: ('A' for Active; 'I' for Inactive)
REMARK    1  A    between atoms: _1  and  _3
REMARK    2  A    between atoms: _14  and  _17
REMARK    3  A    between atoms: _17  and  _18
REMARK    4  A    between atoms: _25  and  _26
REMARK    5  A    between atoms: _33  and  _34
REMARK    6  A    between atoms: _39  and  _41
REMARK    7  A    between atoms: _41  and  _42
REMARK    8  A    between atoms: _44  and  _46
REMARK    9  A    between atoms: _46  and  _47
REMARK   10  A    between atoms: _46  and  _49
REMARK   11  A    between atoms: _49  and  _50
REMARK   12  A    between atoms: _60  and  _62
REMARK   13  A    between atoms: _62  and  _63
REMARK   14  A    between atoms: _62  and  _65
REMARK   15  A    between atoms: _65  and  _66
REMARK   16  A    between atoms: _69  and  _71
REMARK   17  A    between atoms: _71  and  _72
REMARK   18  A    between atoms: _71  and  _74
REMARK   19  A    between atoms: _74  and  _75
REMARK   20  A    between atoms: _80  and  _81
REMARK   21  A    between atoms: _83  and  _85
REMARK   22  A    between atoms: _85  and  _86
REMARK   23  A    between atoms: _85  and  _88
REMARK   24  A    between atoms: _88  and  _89
REMARK   25  A    between atoms: _89  and  _90
REMARK   26  A    between atoms: _93  and  _95
REMARK   27  A    between atoms: _95  and  _96
REMARK   28  A    between atoms: _95  and  _98
REMARK   29  A    between atoms: _98  and  _99
REMARK   30  A    between atoms: _99  and  _100
REMARK   31  A    between atoms: _102  and  _104
REMARK   32  A    between atoms: _104  and  _105
REMARK   33  A    between atoms: _104  and  _107
REMARK   34  A    between atoms: _107  and  _108
REMARK   35  A    between atoms: _111  and  _113
REMARK   36  A    between atoms: _113  and  _114
REMARK   37  A    between atoms: _113  and  _116
REMARK   38  A    between atoms: _116  and  _117
REMARK   39  A    between atoms: _117  and  _118
REMARK   40  A    between atoms: _118  and  ZN_414
REMARK   41  A    between atoms: _121  and  _122
REMARK   42  A    between atoms: _127  and  _129
REMARK   43  A    between atoms: _129  and  _130
REMARK   44  A    between atoms: _129  and  _132
REMARK   45  A    between atoms: _132  and  _133
REMARK   46  A    between atoms: _139  and  _141
REMARK   47  A    between atoms: _141  and  _142
REMARK   48  A    between atoms: _141  and  _144
REMARK   49  A    between atoms: _144  and  _145
REMARK   50  A    between atoms: _145  and  _146
REMARK   51  A    between atoms: _146  and  _147
REMARK   52  A    between atoms: _156  and  _158
REMARK   53  A    between atoms: _158  and  _159
REMARK   54  A    between atoms: _158  and  _161
REMARK   55  A    between atoms: _161  and  _162
REMARK   56  A    between atoms: _167  and  _168
REMARK   57  A    between atoms: _170  and  _172
REMARK   58  A    between atoms: _172  and  _173
REMARK   59  A    between atoms: _172  and  _175
REMARK   60  A    between atoms: _175  and  _176
REMARK   61  A    between atoms: _178  and  _180
REMARK   62  A    between atoms: _180  and  _181
REMARK   63  A    between atoms: _180  and  _183
REMARK   64  A    between atoms: _183  and  _184
REMARK   65  A    between atoms: _189  and  _190
REMARK   66  A    between atoms: _192  and  _194
REMARK   67  A    between atoms: _194  and  _195
REMARK   68  A    between atoms: _194  and  _197
REMARK   69  A    between atoms: _197  and  _198
REMARK   70  A    between atoms: _201  and  _203
REMARK   71  A    between atoms: _203  and  _204
REMARK   72  A    between atoms: _203  and  _206
REMARK   73  A    between atoms: _206  and  _207
REMARK   74  A    between atoms: _210  and  _212
REMARK   75  A    between atoms: _212  and  _213
REMARK   76  A    between atoms: _212  and  _215
REMARK   77  A    between atoms: _215  and  _216
REMARK   78  A    between atoms: _219  and  _221
REMARK   79  A    between atoms: _221  and  _222
REMARK   80  A    between atoms: _221  and  _224
REMARK   81  A    between atoms: _224  and  _225
REMARK   82  A    between atoms: _231  and  _233
REMARK   83  A    between atoms: _233  and  _234
REMARK   84  A    between atoms: _233  and  _236
REMARK   85  A    between atoms: _236  and  _237
REMARK   86  A    between atoms: _242  and  _243
REMARK   87  A    between atoms: _245  and  _247
REMARK   88  A    between atoms: _247  and  _248
REMARK   89  A    between atoms: _247  and  _250
REMARK   90  A    between atoms: _250  and  _251
REMARK   91  A    between atoms: _254  and  _256
REMARK   92  A    between atoms: _256  and  _257
REMARK   93  A    between atoms: _256  and  _259
REMARK   94  A    between atoms: _259  and  _260
REMARK   95  A    between atoms: _270  and  _272
REMARK   96  A    between atoms: _272  and  _273
REMARK   97  A    between atoms: _272  and  _275
REMARK   98  A    between atoms: _275  and  _276
REMARK   99  A    between atoms: _281  and  _283
REMARK  100  A    between atoms: _283  and  _284
REMARK  101  A    between atoms: _283  and  _286
REMARK  102  A    between atoms: _286  and  _287
REMARK  103  A    between atoms: _291  and  ZN_414
REMARK  104  A    between atoms: _292  and  _294
REMARK  105  A    between atoms: _294  and  _295
REMARK  106  A    between atoms: _294  and  _297
REMARK  107  A    between atoms: _297  and  _298
REMARK  108  A    between atoms: _301  and  _303
REMARK  109  A    between atoms: _303  and  _304
REMARK  110  A    between atoms: _306  and  _308
REMARK  111  A    between atoms: _308  and  _309
REMARK  112  A    between atoms: _308  and  _311
REMARK  113  A    between atoms: _311  and  _312
REMARK  114  A    between atoms: _315  and  _317
REMARK  115  A    between atoms: _317  and  _318
REMARK  116  A    between atoms: _317  and  _320
REMARK  117  A    between atoms: _320  and  _321
REMARK  118  A    between atoms: _324  and  _326
REMARK  119  A    between atoms: _326  and  _327
REMARK  120  A    between atoms: _330  and  _332
REMARK  121  A    between atoms: _332  and  _333
REMARK  122  A    between atoms: _336  and  _338
REMARK  123  A    between atoms: _338  and  _339
REMARK  124  A    between atoms: _338  and  _341
REMARK  125  A    between atoms: _341  and  _342
REMARK  126  A    between atoms: _347  and  _348
REMARK  127  A    between atoms: _350  and  _352
REMARK  128  A    between atoms: _352  and  _353
REMARK  129  A    between atoms: _352  and  _355
REMARK  130  A    between atoms: _355  and  _356
REMARK  131  A    between atoms: _359  and  _361
REMARK  132  A    between atoms: _361  and  _362
REMARK  133  A    between atoms: _361  and  _364
REMARK  134  A    between atoms: _364  and  _365
REMARK  135  A    between atoms: _368  and  _370
REMARK  136  A    between atoms: _370  and  _371
REMARK  137  A    between atoms: _370  and  _373
REMARK  138  A    between atoms: _373  and  _374
REMARK  139  A    between atoms: _374  and  _375
REMARK  140  A    between atoms: _378  and  _380
REMARK  141  A    between atoms: _380  and  _381
REMARK  142  A    between atoms: _380  and  _383
REMARK  143  A    between atoms: _383  and  _384
REMARK  144  A    between atoms: _384  and  _385
REMARK  145  A    between atoms: _385  and  _386
REMARK  146  A    between atoms: _395  and  _397
REMARK  147  A    between atoms: _397  and  _398
REMARK  148  A    between atoms: _400  and  _402
REMARK  149  A    between atoms: _402  and  _403
REMARK  150  A    between atoms: _402  and  _405
REMARK  151  A    between atoms: _405  and  _406
REMARK  152  A    between atoms: _409  and  _411
REMARK  153  A    between atoms: _411  and  _412
REMARK                            x       y       z     vdW  Elec       q    Type
REMARK                         _______ _______ _______ _____ _____    ______ ____
ROOT
ATOM      1  O   HOH     1      25.343  73.977   8.772  0.00  0.00    +0.000 OA
ENDROOT
TORSDOF 0
REMARK  Name = ../refined-set-2016/1ps3/1ps3_pocket.pdb
REMARK  153 active torsions:
REMARK  status: ('A' for Active; 'I' for Inactive)
REMARK    1  A    between atoms: _1  and  _3
REMARK    2  A    between atoms: _14  and  _17
REMARK    3  A    between atoms: _17  and  _18
REMARK    4  A    between atoms: _25  and  _26
REMARK    5  A    between atoms: _33  and  _34
REMARK    6  A    between atoms: _39  and  _41
REMARK    7  A    between atoms: _41  and  _42
REMARK    8  A    between atoms: _44  and  _46
REMARK    9  A    between atoms: _46  and  _47
REMARK   10  A    between atoms: _46  and  _49
REMARK   11  A    between atoms: _49  and  _50
REMARK   12  A    between atoms: _60  and  _62
REMARK   13  A    between atoms: _62  and  _63
REMARK   14  A    between atoms: _62  and  _65
REMARK   15  A    between atoms: _65  and  _66
REMARK   16  A    between atoms: _69  and  _71
REMARK   17  A    between atoms: _71  and  _72
REMARK   18  A    between atoms: _71  and  _74
REMARK   19  A    between atoms: _74  and  _75
REMARK   20  A    between atoms: _80  and  _81
REMARK   21  A    between atoms: _83  and  _85
REMARK   22  A    between atoms: _85  and  _86
REMARK   23  A    between atoms: _85  and  _88
REMARK   24  A    between atoms: _88  and  _89
REMARK   25  A    between atoms: _89  and  _90
REMARK   26  A    between atoms: _93  and  _95
REMARK   27  A    between atoms: _95  and  _96
REMARK   28  A    between atoms: _95  and  _98
REMARK   29  A    between atoms: _98  and  _99
REMARK   30  A    between atoms: _99  and  _100
REMARK   31  A    between atoms: _102  and  _104
REMARK   32  A    between atoms: _104  and  _105
REMARK   33  A    between atoms: _104  and  _107
REMARK   34  A    between atoms: _107  and  _108
REMARK   35  A    between atoms: _111  and  _113
REMARK   36  A    between atoms: _113  and  _114
REMARK   37  A    between atoms: _113  and  _116
REMARK   38  A    between atoms: _116  and  _117
REMARK   39  A    between atoms: _117  and  _118
REMARK   40  A    between atoms: _118  and  ZN_414
REMARK   41  A    between atoms: _121  and  _122
REMARK   42  A    between atoms: _127  and  _129
REMARK   43  A    between atoms: _129  and  _130
REMARK   44  A    between atoms: _129  and  _132
REMARK   45  A    between atoms: _132  and  _133
REMARK   46  A    between atoms: _139  and  _141
REMARK   47  A    between atoms: _141  and  _142
REMARK   48  A    between atoms: _141  and  _144
REMARK   49  A    between atoms: _144  and  _145
REMARK   50  A    between atoms: _145  and  _146
REMARK   51  A    between atoms: _146  and  _147
REMARK   52  A    between atoms: _156  and  _158
REMARK   53  A    between atoms: _158  and  _159
REMARK   54  A    between atoms: _158  and  _161
REMARK   55  A    between atoms: _161  and  _162
REMARK   56  A    between atoms: _167  and  _168
REMARK   57  A    between atoms: _170  and  _172
REMARK   58  A    between atoms: _172  and  _173
REMARK   59  A    between atoms: _172  and  _175
REMARK   60  A    between atoms: _175  and  _176
REMARK   61  A    between atoms: _178  and  _180
REMARK   62  A    between atoms: _180  and  _181
REMARK   63  A    between atoms: _180  and  _183
REMARK   64  A    between atoms: _183  and  _184
REMARK   65  A    between atoms: _189  and  _190
REMARK   66  A    between atoms: _192  and  _194
REMARK   67  A    between atoms: _194  and  _195
REMARK   68  A    between atoms: _194  and  _197
REMARK   69  A    between atoms: _197  and  _198
REMARK   70  A    between atoms: _201  and  _203
REMARK   71  A    between atoms: _203  and  _204
REMARK   72  A    between atoms: _203  and  _206
REMARK   73  A    between atoms: _206  and  _207
REMARK   74  A    between atoms: _210  and  _212
REMARK   75  A    between atoms: _212  and  _213
REMARK   76  A    between atoms: _212  and  _215
REMARK   77  A    between atoms: _215  and  _216
REMARK   78  A    between atoms: _219  and  _221
REMARK   79  A    between atoms: _221  and  _222
REMARK   80  A    between atoms: _221  and  _224
REMARK   81  A    between atoms: _224  and  _225
REMARK   82  A    between atoms: _231  and  _233
REMARK   83  A    between atoms: _233  and  _234
REMARK   84  A    between atoms: _233  and  _236
REMARK   85  A    between atoms: _236  and  _237
REMARK   86  A    between atoms: _242  and  _243
REMARK   87  A    between atoms: _245  and  _247
REMARK   88  A    between atoms: _247  and  _248
REMARK   89  A    between atoms: _247  and  _250
REMARK   90  A    between atoms: _250  and  _251
REMARK   91  A    between atoms: _254  and  _256
REMARK   92  A    between atoms: _256  and  _257
REMARK   93  A    between atoms: _256  and  _259
REMARK   94  A    between atoms: _259  and  _260
REMARK   95  A    between atoms: _270  and  _272
REMARK   96  A    between atoms: _272  and  _273
REMARK   97  A    between atoms: _272  and  _275
REMARK   98  A    between atoms: _275  and  _276
REMARK   99  A    between atoms: _281  and  _283
REMARK  100  A    between atoms: _283  and  _284
REMARK  101  A    between atoms: _283  and  _286
REMARK  102  A    between atoms: _286  and  _287
REMARK  103  A    between atoms: _291  and  ZN_414
REMARK  104  A    between atoms: _292  and  _294
REMARK  105  A    between atoms: _294  and  _295
REMARK  106  A    between atoms: _294  and  _297
REMARK  107  A    between atoms: _297  and  _298
REMARK  108  A    between atoms: _301  and  _303
REMARK  109  A    between atoms: _303  and  _304
REMARK  110  A    between atoms: _306  and  _308
REMARK  111  A    between atoms: _308  and  _309
REMARK  112  A    between atoms: _308  and  _311
REMARK  113  A    between atoms: _311  and  _312
REMARK  114  A    between atoms: _315  and  _317
REMARK  115  A    between atoms: _317  and  _318
REMARK  116  A    between atoms: _317  and  _320
REMARK  117  A    between atoms: _320  and  _321
REMARK  118  A    between atoms: _324  and  _326
REMARK  119  A    between atoms: _326  and  _327
REMARK  120  A    between atoms: _330  and  _332
REMARK  121  A    between atoms: _332  and  _333
REMARK  122  A    between atoms: _336  and  _338
REMARK  123  A    between atoms: _338  and  _339
REMARK  124  A    between atoms: _338  and  _341
REMARK  125  A    between atoms: _341  and  _342
REMARK  126  A    between atoms: _347  and  _348
REMARK  127  A    between atoms: _350  and  _352
REMARK  128  A    between atoms: _352  and  _353
REMARK  129  A    between atoms: _352  and  _355
REMARK  130  A    between atoms: _355  and  _356
REMARK  131  A    between atoms: _359  and  _361
REMARK  132  A    between atoms: _361  and  _362
REMARK  133  A    between atoms: _361  and  _364
REMARK  134  A    between atoms: _364  and  _365
REMARK  135  A    between atoms: _368  and  _370
REMARK  136  A    between atoms: _370  and  _371
REMARK  137  A    between atoms: _370  and  _373
REMARK  138  A    between atoms: _373  and  _374
REMARK  139  A    between atoms: _374  and  _375
REMARK  140  A    between atoms: _378  and  _380
REMARK  141  A    between atoms: _380  and  _381
REMARK  142  A    between atoms: _380  and  _383
REMARK  143  A    between atoms: _383  and  _384
REMARK  144  A    between atoms: _384  and  _385
REMARK  145  A    between atoms: _385  and  _386
REMARK  146  A    between atoms: _395  and  _397
REMARK  147  A    between atoms: _397  and  _398
REMARK  148  A    between atoms: _400  and  _402
REMARK  149  A    between atoms: _402  and  _403
REMARK  150  A    between atoms: _402  and  _405
REMARK  151  A    between atoms: _405  and  _406
REMARK  152  A    between atoms: _409  and  _411
REMARK  153  A    between atoms: _411  and  _412
REMARK                            x       y       z     vdW  Elec       q    Type
REMARK                         _______ _______ _______ _____ _____    ______ ____
ROOT
ATOM      1  O   HOH     1      31.049  68.391  14.085  0.00  0.00    +0.000 OA
ENDROOT
TORSDOF 0
REMARK  Name = ../refined-set-2016/1ps3/1ps3_pocket.pdb
REMARK  153 active torsions:
REMARK  status: ('A' for Active; 'I' for Inactive)
REMARK    1  A    between atoms: _1  and  _3
REMARK    2  A    between atoms: _14  and  _17
REMARK    3  A    between atoms: _17  and  _18
REMARK    4  A    between atoms: _25  and  _26
REMARK    5  A    between atoms: _33  and  _34
REMARK    6  A    between atoms: _39  and  _41
REMARK    7  A    between atoms: _41  and  _42
REMARK    8  A    between atoms: _44  and  _46
REMARK    9  A    between atoms: _46  and  _47
REMARK   10  A    between atoms: _46  and  _49
REMARK   11  A    between atoms: _49  and  _50
REMARK   12  A    between atoms: _60  and  _62
REMARK   13  A    between atoms: _62  and  _63
REMARK   14  A    between atoms: _62  and  _65
REMARK   15  A    between atoms: _65  and  _66
REMARK   16  A    between atoms: _69  and  _71
REMARK   17  A    between atoms: _71  and  _72
REMARK   18  A    between atoms: _71  and  _74
REMARK   19  A    between atoms: _74  and  _75
REMARK   20  A    between atoms: _80  and  _81
REMARK   21  A    between atoms: _83  and  _85
REMARK   22  A    between atoms: _85  and  _86
REMARK   23  A    between atoms: _85  and  _88
REMARK   24  A    between atoms: _88  and  _89
REMARK   25  A    between atoms: _89  and  _90
REMARK   26  A    between atoms: _93  and  _95
REMARK   27  A    between atoms: _95  and  _96
REMARK   28  A    between atoms: _95  and  _98
REMARK   29  A    between atoms: _98  and  _99
REMARK   30  A    between atoms: _99  and  _100
REMARK   31  A    between atoms: _102  and  _104
REMARK   32  A    between atoms: _104  and  _105
REMARK   33  A    between atoms: _104  and  _107
REMARK   34  A    between atoms: _107  and  _108
REMARK   35  A    between atoms: _111  and  _113
REMARK   36  A    between atoms: _113  and  _114
REMARK   37  A    between atoms: _113  and  _116
REMARK   38  A    between atoms: _116  and  _117
REMARK   39  A    between atoms: _117  and  _118
REMARK   40  A    between atoms: _118  and  ZN_414
REMARK   41  A    between atoms: _121  and  _122
REMARK   42  A    between atoms: _127  and  _129
REMARK   43  A    between atoms: _129  and  _130
REMARK   44  A    between atoms: _129  and  _132
REMARK   45  A    between atoms: _132  and  _133
REMARK   46  A    between atoms: _139  and  _141
REMARK   47  A    between atoms: _141  and  _142
REMARK   48  A    between atoms: _141  and  _144
REMARK   49  A    between atoms: _144  and  _145
REMARK   50  A    between atoms: _145  and  _146
REMARK   51  A    between atoms: _146  and  _147
REMARK   52  A    between atoms: _156  and  _158
REMARK   53  A    between atoms: _158  and  _159
REMARK   54  A    between atoms: _158  and  _161
REMARK   55  A    between atoms: _161  and  _162
REMARK   56  A    between atoms: _167  and  _168
REMARK   57  A    between atoms: _170  and  _172
REMARK   58  A    between atoms: _172  and  _173
REMARK   59  A    between atoms: _172  and  _175
REMARK   60  A    between atoms: _175  and  _176
REMARK   61  A    between atoms: _178  and  _180
REMARK   62  A    between atoms: _180  and  _181
REMARK   63  A    between atoms: _180  and  _183
REMARK   64  A    between atoms: _183  and  _184
REMARK   65  A    between atoms: _189  and  _190
REMARK   66  A    between atoms: _192  and  _194
REMARK   67  A    between atoms: _194  and  _195
REMARK   68  A    between atoms: _194  and  _197
REMARK   69  A    between atoms: _197  and  _198
REMARK   70  A    between atoms: _201  and  _203
REMARK   71  A    between atoms: _203  and  _204
REMARK   72  A    between atoms: _203  and  _206
REMARK   73  A    between atoms: _206  and  _207
REMARK   74  A    between atoms: _210  and  _212
REMARK   75  A    between atoms: _212  and  _213
REMARK   76  A    between atoms: _212  and  _215
REMARK   77  A    between atoms: _215  and  _216
REMARK   78  A    between atoms: _219  and  _221
REMARK   79  A    between atoms: _221  and  _222
REMARK   80  A    between atoms: _221  and  _224
REMARK   81  A    between atoms: _224  and  _225
REMARK   82  A    between atoms: _231  and  _233
REMARK   83  A    between atoms: _233  and  _234
REMARK   84  A    between atoms: _233  and  _236
REMARK   85  A    between atoms: _236  and  _237
REMARK   86  A    between atoms: _242  and  _243
REMARK   87  A    between atoms: _245  and  _247
REMARK   88  A    between atoms: _247  and  _248
REMARK   89  A    between atoms: _247  and  _250
REMARK   90  A    between atoms: _250  and  _251
REMARK   91  A    between atoms: _254  and  _256
REMARK   92  A    between atoms: _256  and  _257
REMARK   93  A    between atoms: _256  and  _259
REMARK   94  A    between atoms: _259  and  _260
REMARK   95  A    between atoms: _270  and  _272
REMARK   96  A    between atoms: _272  and  _273
REMARK   97  A    between atoms: _272  and  _275
REMARK   98  A    between atoms: _275  and  _276
REMARK   99  A    between atoms: _281  and  _283
REMARK  100  A    between atoms: _283  and  _284
REMARK  101  A    between atoms: _283  and  _286
REMARK  102  A    between atoms: _286  and  _287
REMARK  103  A    between atoms: _291  and  ZN_414
REMARK  104  A    between atoms: _292  and  _294
REMARK  105  A    between atoms: _294  and  _295
REMARK  106  A    between atoms: _294  and  _297
REMARK  107  A    between atoms: _297  and  _298
REMARK  108  A    between atoms: _301  and  _303
REMARK  109  A    between atoms: _303  and  _304
REMARK  110  A    between atoms: _306  and  _308
REMARK  111  A    between atoms: _308  and  _309
REMARK  112  A    between atoms: _308  and  _311
REMARK  113  A    between atoms: _311  and  _312
REMARK  114  A    between atoms: _315  and  _317
REMARK  115  A    between atoms: _317  and  _318
REMARK  116  A    between atoms: _317  and  _320
REMARK  117  A    between atoms: _320  and  _321
REMARK  118  A    between atoms: _324  and  _326
REMARK  119  A    between atoms: _326  and  _327
REMARK  120  A    between atoms: _330  and  _332
REMARK  121  A    between atoms: _332  and  _333
REMARK  122  A    between atoms: _336  and  _338
REMARK  123  A    between atoms: _338  and  _339
REMARK  124  A    between atoms: _338  and  _341
REMARK  125  A    between atoms: _341  and  _342
REMARK  126  A    between atoms: _347  and  _348
REMARK  127  A    between atoms: _350  and  _352
REMARK  128  A    between atoms: _352  and  _353
REMARK  129  A    between atoms: _352  and  _355
REMARK  130  A    between atoms: _355  and  _356
REMARK  131  A    between atoms: _359  and  _361
REMARK  132  A    between atoms: _361  and  _362
REMARK  133  A    between atoms: _361  and  _364
REMARK  134  A    between atoms: _364  and  _365
REMARK  135  A    between atoms: _368  and  _370
REMARK  136  A    between atoms: _370  and  _371
REMARK  137  A    between atoms: _370  and  _373
REMARK  138  A    between atoms: _373  and  _374
REMARK  139  A    between atoms: _374  and  _375
REMARK  140  A    between atoms: _378  and  _380
REMARK  141  A    between atoms: _380  and  _381
REMARK  142  A    between atoms: _380  and  _383
REMARK  143  A    between atoms: _383  and  _384
REMARK  144  A    between atoms: _384  and  _385
REMARK  145  A    between atoms: _385  and  _386
REMARK  146  A    between atoms: _395  and  _397
REMARK  147  A    between atoms: _397  and  _398
REMARK  148  A    between atoms: _400  and  _402
REMARK  149  A    between atoms: _402  and  _403
REMARK  150  A    between atoms: _402  and  _405
REMARK  151  A    between atoms: _405  and  _406
REMARK  152  A    between atoms: _409  and  _411
REMARK  153  A    between atoms: _411  and  _412
REMARK                            x       y       z     vdW  Elec       q    Type
REMARK                         _______ _______ _______ _____ _____    ______ ____
ROOT
ATOM      1  O   HOH     1      29.838  72.029  12.340  0.00  0.00    +0.000 OA
ENDROOT
TORSDOF 0
REMARK  Name = ../refined-set-2016/1ps3/1ps3_pocket.pdb
REMARK  153 active torsions:
REMARK  status: ('A' for Active; 'I' for Inactive)
REMARK    1  A    between atoms: _1  and  _3
REMARK    2  A    between atoms: _14  and  _17
REMARK    3  A    between atoms: _17  and  _18
REMARK    4  A    between atoms: _25  and  _26
REMARK    5  A    between atoms: _33  and  _34
REMARK    6  A    between atoms: _39  and  _41
REMARK    7  A    between atoms: _41  and  _42
REMARK    8  A    between atoms: _44  and  _46
REMARK    9  A    between atoms: _46  and  _47
REMARK   10  A    between atoms: _46  and  _49
REMARK   11  A    between atoms: _49  and  _50
REMARK   12  A    between atoms: _60  and  _62
REMARK   13  A    between atoms: _62  and  _63
REMARK   14  A    between atoms: _62  and  _65
REMARK   15  A    between atoms: _65  and  _66
REMARK   16  A    between atoms: _69  and  _71
REMARK   17  A    between atoms: _71  and  _72
REMARK   18  A    between atoms: _71  and  _74
REMARK   19  A    between atoms: _74  and  _75
REMARK   20  A    between atoms: _80  and  _81
REMARK   21  A    between atoms: _83  and  _85
REMARK   22  A    between atoms: _85  and  _86
REMARK   23  A    between atoms: _85  and  _88
REMARK   24  A    between atoms: _88  and  _89
REMARK   25  A    between atoms: _89  and  _90
REMARK   26  A    between atoms: _93  and  _95
REMARK   27  A    between atoms: _95  and  _96
REMARK   28  A    between atoms: _95  and  _98
REMARK   29  A    between atoms: _98  and  _99
REMARK   30  A    between atoms: _99  and  _100
REMARK   31  A    between atoms: _102  and  _104
REMARK   32  A    between atoms: _104  and  _105
REMARK   33  A    between atoms: _104  and  _107
REMARK   34  A    between atoms: _107  and  _108
REMARK   35  A    between atoms: _111  and  _113
REMARK   36  A    between atoms: _113  and  _114
REMARK   37  A    between atoms: _113  and  _116
REMARK   38  A    between atoms: _116  and  _117
REMARK   39  A    between atoms: _117  and  _118
REMARK   40  A    between atoms: _118  and  ZN_414
REMARK   41  A    between atoms: _121  and  _122
REMARK   42  A    between atoms: _127  and  _129
REMARK   43  A    between atoms: _129  and  _130
REMARK   44  A    between atoms: _129  and  _132
REMARK   45  A    between atoms: _132  and  _133
REMARK   46  A    between atoms: _139  and  _141
REMARK   47  A    between atoms: _141  and  _142
REMARK   48  A    between atoms: _141  and  _144
REMARK   49  A    between atoms: _144  and  _145
REMARK   50  A    between atoms: _145  and  _146
REMARK   51  A    between atoms: _146  and  _147
REMARK   52  A    between atoms: _156  and  _158
REMARK   53  A    between atoms: _158  and  _159
REMARK   54  A    between atoms: _158  and  _161
REMARK   55  A    between atoms: _161  and  _162
REMARK   56  A    between atoms: _167  and  _168
REMARK   57  A    between atoms: _170  and  _172
REMARK   58  A    between atoms: _172  and  _173
REMARK   59  A    between atoms: _172  and  _175
REMARK   60  A    between atoms: _175  and  _176
REMARK   61  A    between atoms: _178  and  _180
REMARK   62  A    between atoms: _180  and  _181
REMARK   63  A    between atoms: _180  and  _183
REMARK   64  A    between atoms: _183  and  _184
REMARK   65  A    between atoms: _189  and  _190
REMARK   66  A    between atoms: _192  and  _194
REMARK   67  A    between atoms: _194  and  _195
REMARK   68  A    between atoms: _194  and  _197
REMARK   69  A    between atoms: _197  and  _198
REMARK   70  A    between atoms: _201  and  _203
REMARK   71  A    between atoms: _203  and  _204
REMARK   72  A    between atoms: _203  and  _206
REMARK   73  A    between atoms: _206  and  _207
REMARK   74  A    between atoms: _210  and  _212
REMARK   75  A    between atoms: _212  and  _213
REMARK   76  A    between atoms: _212  and  _215
REMARK   77  A    between atoms: _215  and  _216
REMARK   78  A    between atoms: _219  and  _221
REMARK   79  A    between atoms: _221  and  _222
REMARK   80  A    between atoms: _221  and  _224
REMARK   81  A    between atoms: _224  and  _225
REMARK   82  A    between atoms: _231  and  _233
REMARK   83  A    between atoms: _233  and  _234
REMARK   84  A    between atoms: _233  and  _236
REMARK   85  A    between atoms: _236  and  _237
REMARK   86  A    between atoms: _242  and  _243
REMARK   87  A    between atoms: _245  and  _247
REMARK   88  A    between atoms: _247  and  _248
REMARK   89  A    between atoms: _247  and  _250
REMARK   90  A    between atoms: _250  and  _251
REMARK   91  A    between atoms: _254  and  _256
REMARK   92  A    between atoms: _256  and  _257
REMARK   93  A    between atoms: _256  and  _259
REMARK   94  A    between atoms: _259  and  _260
REMARK   95  A    between atoms: _270  and  _272
REMARK   96  A    between atoms: _272  and  _273
REMARK   97  A    between atoms: _272  and  _275
REMARK   98  A    between atoms: _275  and  _276
REMARK   99  A    between atoms: _281  and  _283
REMARK  100  A    between atoms: _283  and  _284
REMARK  101  A    between atoms: _283  and  _286
REMARK  102  A    between atoms: _286  and  _287
REMARK  103  A    between atoms: _291  and  ZN_414
REMARK  104  A    between atoms: _292  and  _294
REMARK  105  A    between atoms: _294  and  _295
REMARK  106  A    between atoms: _294  and  _297
REMARK  107  A    between atoms: _297  and  _298
REMARK  108  A    between atoms: _301  and  _303
REMARK  109  A    between atoms: _303  and  _304
REMARK  110  A    between atoms: _306  and  _308
REMARK  111  A    between atoms: _308  and  _309
REMARK  112  A    between atoms: _308  and  _311
REMARK  113  A    between atoms: _311  and  _312
REMARK  114  A    between atoms: _315  and  _317
REMARK  115  A    between atoms: _317  and  _318
REMARK  116  A    between atoms: _317  and  _320
REMARK  117  A    between atoms: _320  and  _321
REMARK  118  A    between atoms: _324  and  _326
REMARK  119  A    between atoms: _326  and  _327
REMARK  120  A    between atoms: _330  and  _332
REMARK  121  A    between atoms: _332  and  _333
REMARK  122  A    between atoms: _336  and  _338
REMARK  123  A    between atoms: _338  and  _339
REMARK  124  A    between atoms: _338  and  _341
REMARK  125  A    between atoms: _341  and  _342
REMARK  126  A    between atoms: _347  and  _348
REMARK  127  A    between atoms: _350  and  _352
REMARK  128  A    between atoms: _352  and  _353
REMARK  129  A    between atoms: _352  and  _355
REMARK  130  A    between atoms: _355  and  _356
REMARK  131  A    between atoms: _359  and  _361
REMARK  132  A    between atoms: _361  and  _362
REMARK  133  A    between atoms: _361  and  _364
REMARK  134  A    between atoms: _364  and  _365
REMARK  135  A    between atoms: _368  and  _370
REMARK  136  A    between atoms: _370  and  _371
REMARK  137  A    between atoms: _370  and  _373
REMARK  138  A    between atoms: _373  and  _374
REMARK  139  A    between atoms: _374  and  _375
REMARK  140  A    between atoms: _378  and  _380
REMARK  141  A    between atoms: _380  and  _381
REMARK  142  A    between atoms: _380  and  _383
REMARK  143  A    between atoms: _383  and  _384
REMARK  144  A    between atoms: _384  and  _385
REMARK  145  A    between atoms: _385  and  _386
REMARK  146  A    between atoms: _395  and  _397
REMARK  147  A    between atoms: _397  and  _398
REMARK  148  A    between atoms: _400  and  _402
REMARK  149  A    between atoms: _402  and  _403
REMARK  150  A    between atoms: _402  and  _405
REMARK  151  A    between atoms: _405  and  _406
REMARK  152  A    between atoms: _409  and  _411
REMARK  153  A    between atoms: _411  and  _412
REMARK                            x       y       z     vdW  Elec       q    Type
REMARK                         _______ _______ _______ _____ _____    ______ ____
ROOT
ATOM      1  O   HOH     1      24.784  61.469   9.288  0.00  0.00    +0.000 OA
ENDROOT
TORSDOF 0
REMARK  Name = ../refined-set-2016/1ps3/1ps3_pocket.pdb
REMARK  153 active torsions:
REMARK  status: ('A' for Active; 'I' for Inactive)
REMARK    1  A    between atoms: _1  and  _3
REMARK    2  A    between atoms: _14  and  _17
REMARK    3  A    between atoms: _17  and  _18
REMARK    4  A    between atoms: _25  and  _26
REMARK    5  A    between atoms: _33  and  _34
REMARK    6  A    between atoms: _39  and  _41
REMARK    7  A    between atoms: _41  and  _42
REMARK    8  A    between atoms: _44  and  _46
REMARK    9  A    between atoms: _46  and  _47
REMARK   10  A    between atoms: _46  and  _49
REMARK   11  A    between atoms: _49  and  _50
REMARK   12  A    between atoms: _60  and  _62
REMARK   13  A    between atoms: _62  and  _63
REMARK   14  A    between atoms: _62  and  _65
REMARK   15  A    between atoms: _65  and  _66
REMARK   16  A    between atoms: _69  and  _71
REMARK   17  A    between atoms: _71  and  _72
REMARK   18  A    between atoms: _71  and  _74
REMARK   19  A    between atoms: _74  and  _75
REMARK   20  A    between atoms: _80  and  _81
REMARK   21  A    between atoms: _83  and  _85
REMARK   22  A    between atoms: _85  and  _86
REMARK   23  A    between atoms: _85  and  _88
REMARK   24  A    between atoms: _88  and  _89
REMARK   25  A    between atoms: _89  and  _90
REMARK   26  A    between atoms: _93  and  _95
REMARK   27  A    between atoms: _95  and  _96
REMARK   28  A    between atoms: _95  and  _98
REMARK   29  A    between atoms: _98  and  _99
REMARK   30  A    between atoms: _99  and  _100
REMARK   31  A    between atoms: _102  and  _104
REMARK   32  A    between atoms: _104  and  _105
REMARK   33  A    between atoms: _104  and  _107
REMARK   34  A    between atoms: _107  and  _108
REMARK   35  A    between atoms: _111  and  _113
REMARK   36  A    between atoms: _113  and  _114
REMARK   37  A    between atoms: _113  and  _116
REMARK   38  A    between atoms: _116  and  _117
REMARK   39  A    between atoms: _117  and  _118
REMARK   40  A    between atoms: _118  and  ZN_414
REMARK   41  A    between atoms: _121  and  _122
REMARK   42  A    between atoms: _127  and  _129
REMARK   43  A    between atoms: _129  and  _130
REMARK   44  A    between atoms: _129  and  _132
REMARK   45  A    between atoms: _132  and  _133
REMARK   46  A    between atoms: _139  and  _141
REMARK   47  A    between atoms: _141  and  _142
REMARK   48  A    between atoms: _141  and  _144
REMARK   49  A    between atoms: _144  and  _145
REMARK   50  A    between atoms: _145  and  _146
REMARK   51  A    between atoms: _146  and  _147
REMARK   52  A    between atoms: _156  and  _158
REMARK   53  A    between atoms: _158  and  _159
REMARK   54  A    between atoms: _158  and  _161
REMARK   55  A    between atoms: _161  and  _162
REMARK   56  A    between atoms: _167  and  _168
REMARK   57  A    between atoms: _170  and  _172
REMARK   58  A    between atoms: _172  and  _173
REMARK   59  A    between atoms: _172  and  _175
REMARK   60  A    between atoms: _175  and  _176
REMARK   61  A    between atoms: _178  and  _180
REMARK   62  A    between atoms: _180  and  _181
REMARK   63  A    between atoms: _180  and  _183
REMARK   64  A    between atoms: _183  and  _184
REMARK   65  A    between atoms: _189  and  _190
REMARK   66  A    between atoms: _192  and  _194
REMARK   67  A    between atoms: _194  and  _195
REMARK   68  A    between atoms: _194  and  _197
REMARK   69  A    between atoms: _197  and  _198
REMARK   70  A    between atoms: _201  and  _203
REMARK   71  A    between atoms: _203  and  _204
REMARK   72  A    between atoms: _203  and  _206
REMARK   73  A    between atoms: _206  and  _207
REMARK   74  A    between atoms: _210  and  _212
REMARK   75  A    between atoms: _212  and  _213
REMARK   76  A    between atoms: _212  and  _215
REMARK   77  A    between atoms: _215  and  _216
REMARK   78  A    between atoms: _219  and  _221
REMARK   79  A    between atoms: _221  and  _222
REMARK   80  A    between atoms: _221  and  _224
REMARK   81  A    between atoms: _224  and  _225
REMARK   82  A    between atoms: _231  and  _233
REMARK   83  A    between atoms: _233  and  _234
REMARK   84  A    between atoms: _233  and  _236
REMARK   85  A    between atoms: _236  and  _237
REMARK   86  A    between atoms: _242  and  _243
REMARK   87  A    between atoms: _245  and  _247
REMARK   88  A    between atoms: _247  and  _248
REMARK   89  A    between atoms: _247  and  _250
REMARK   90  A    between atoms: _250  and  _251
REMARK   91  A    between atoms: _254  and  _256
REMARK   92  A    between atoms: _256  and  _257
REMARK   93  A    between atoms: _256  and  _259
REMARK   94  A    between atoms: _259  and  _260
REMARK   95  A    between atoms: _270  and  _272
REMARK   96  A    between atoms: _272  and  _273
REMARK   97  A    between atoms: _272  and  _275
REMARK   98  A    between atoms: _275  and  _276
REMARK   99  A    between atoms: _281  and  _283
REMARK  100  A    between atoms: _283  and  _284
REMARK  101  A    between atoms: _283  and  _286
REMARK  102  A    between atoms: _286  and  _287
REMARK  103  A    between atoms: _291  and  ZN_414
REMARK  104  A    between atoms: _292  and  _294
REMARK  105  A    between atoms: _294  and  _295
REMARK  106  A    between atoms: _294  and  _297
REMARK  107  A    between atoms: _297  and  _298
REMARK  108  A    between atoms: _301  and  _303
REMARK  109  A    between atoms: _303  and  _304
REMARK  110  A    between atoms: _306  and  _308
REMARK  111  A    between atoms: _308  and  _309
REMARK  112  A    between atoms: _308  and  _311
REMARK  113  A    between atoms: _311  and  _312
REMARK  114  A    between atoms: _315  and  _317
REMARK  115  A    between atoms: _317  and  _318
REMARK  116  A    between atoms: _317  and  _320
REMARK  117  A    between atoms: _320  and  _321
REMARK  118  A    between atoms: _324  and  _326
REMARK  119  A    between atoms: _326  and  _327
REMARK  120  A    between atoms: _330  and  _332
REMARK  121  A    between atoms: _332  and  _333
REMARK  122  A    between atoms: _336  and  _338
REMARK  123  A    between atoms: _338  and  _339
REMARK  124  A    between atoms: _338  and  _341
REMARK  125  A    between atoms: _341  and  _342
REMARK  126  A    between atoms: _347  and  _348
REMARK  127  A    between atoms: _350  and  _352
REMARK  128  A    between atoms: _352  and  _353
REMARK  129  A    between atoms: _352  and  _355
REMARK  130  A    between atoms: _355  and  _356
REMARK  131  A    between atoms: _359  and  _361
REMARK  132  A    between atoms: _361  and  _362
REMARK  133  A    between atoms: _361  and  _364
REMARK  134  A    between atoms: _364  and  _365
REMARK  135  A    between atoms: _368  and  _370
REMARK  136  A    between atoms: _370  and  _371
REMARK  137  A    between atoms: _370  and  _373
REMARK  138  A    between atoms: _373  and  _374
REMARK  139  A    between atoms: _374  and  _375
REMARK  140  A    between atoms: _378  and  _380
REMARK  141  A    between atoms: _380  and  _381
REMARK  142  A    between atoms: _380  and  _383
REMARK  143  A    between atoms: _383  and  _384
REMARK  144  A    between atoms: _384  and  _385
REMARK  145  A    between atoms: _385  and  _386
REMARK  146  A    between atoms: _395  and  _397
REMARK  147  A    between atoms: _397  and  _398
REMARK  148  A    between atoms: _400  and  _402
REMARK  149  A    between atoms: _402  and  _403
REMARK  150  A    between atoms: _402  and  _405
REMARK  151  A    between atoms: _405  and  _406
REMARK  152  A    between atoms: _409  and  _411
REMARK  153  A    between atoms: _411  and  _412
REMARK                            x       y       z     vdW  Elec       q    Type
REMARK                         _______ _______ _______ _____ _____    ______ ____
ROOT
ATOM      1  O   HOH     1      24.391  65.373   9.788  0.00  0.00    +0.000 OA
ENDROOT
TORSDOF 0
REMARK  Name = ../refined-set-2016/1ps3/1ps3_pocket.pdb
REMARK  153 active torsions:
REMARK  status: ('A' for Active; 'I' for Inactive)
REMARK    1  A    between atoms: _1  and  _3
REMARK    2  A    between atoms: _14  and  _17
REMARK    3  A    between atoms: _17  and  _18
REMARK    4  A    between atoms: _25  and  _26
REMARK    5  A    between atoms: _33  and  _34
REMARK    6  A    between atoms: _39  and  _41
REMARK    7  A    between atoms: _41  and  _42
REMARK    8  A    between atoms: _44  and  _46
REMARK    9  A    between atoms: _46  and  _47
REMARK   10  A    between atoms: _46  and  _49
REMARK   11  A    between atoms: _49  and  _50
REMARK   12  A    between atoms: _60  and  _62
REMARK   13  A    between atoms: _62  and  _63
REMARK   14  A    between atoms: _62  and  _65
REMARK   15  A    between atoms: _65  and  _66
REMARK   16  A    between atoms: _69  and  _71
REMARK   17  A    between atoms: _71  and  _72
REMARK   18  A    between atoms: _71  and  _74
REMARK   19  A    between atoms: _74  and  _75
REMARK   20  A    between atoms: _80  and  _81
REMARK   21  A    between atoms: _83  and  _85
REMARK   22  A    between atoms: _85  and  _86
REMARK   23  A    between atoms: _85  and  _88
REMARK   24  A    between atoms: _88  and  _89
REMARK   25  A    between atoms: _89  and  _90
REMARK   26  A    between atoms: _93  and  _95
REMARK   27  A    between atoms: _95  and  _96
REMARK   28  A    between atoms: _95  and  _98
REMARK   29  A    between atoms: _98  and  _99
REMARK   30  A    between atoms: _99  and  _100
REMARK   31  A    between atoms: _102  and  _104
REMARK   32  A    between atoms: _104  and  _105
REMARK   33  A    between atoms: _104  and  _107
REMARK   34  A    between atoms: _107  and  _108
REMARK   35  A    between atoms: _111  and  _113
REMARK   36  A    between atoms: _113  and  _114
REMARK   37  A    between atoms: _113  and  _116
REMARK   38  A    between atoms: _116  and  _117
REMARK   39  A    between atoms: _117  and  _118
REMARK   40  A    between atoms: _118  and  ZN_414
REMARK   41  A    between atoms: _121  and  _122
REMARK   42  A    between atoms: _127  and  _129
REMARK   43  A    between atoms: _129  and  _130
REMARK   44  A    between atoms: _129  and  _132
REMARK   45  A    between atoms: _132  and  _133
REMARK   46  A    between atoms: _139  and  _141
REMARK   47  A    between atoms: _141  and  _142
REMARK   48  A    between atoms: _141  and  _144
REMARK   49  A    between atoms: _144  and  _145
REMARK   50  A    between atoms: _145  and  _146
REMARK   51  A    between atoms: _146  and  _147
REMARK   52  A    between atoms: _156  and  _158
REMARK   53  A    between atoms: _158  and  _159
REMARK   54  A    between atoms: _158  and  _161
REMARK   55  A    between atoms: _161  and  _162
REMARK   56  A    between atoms: _167  and  _168
REMARK   57  A    between atoms: _170  and  _172
REMARK   58  A    between atoms: _172  and  _173
REMARK   59  A    between atoms: _172  and  _175
REMARK   60  A    between atoms: _175  and  _176
REMARK   61  A    between atoms: _178  and  _180
REMARK   62  A    between atoms: _180  and  _181
REMARK   63  A    between atoms: _180  and  _183
REMARK   64  A    between atoms: _183  and  _184
REMARK   65  A    between atoms: _189  and  _190
REMARK   66  A    between atoms: _192  and  _194
REMARK   67  A    between atoms: _194  and  _195
REMARK   68  A    between atoms: _194  and  _197
REMARK   69  A    between atoms: _197  and  _198
REMARK   70  A    between atoms: _201  and  _203
REMARK   71  A    between atoms: _203  and  _204
REMARK   72  A    between atoms: _203  and  _206
REMARK   73  A    between atoms: _206  and  _207
REMARK   74  A    between atoms: _210  and  _212
REMARK   75  A    between atoms: _212  and  _213
REMARK   76  A    between atoms: _212  and  _215
REMARK   77  A    between atoms: _215  and  _216
REMARK   78  A    between atoms: _219  and  _221
REMARK   79  A    between atoms: _221  and  _222
REMARK   80  A    between atoms: _221  and  _224
REMARK   81  A    between atoms: _224  and  _225
REMARK   82  A    between atoms: _231  and  _233
REMARK   83  A    between atoms: _233  and  _234
REMARK   84  A    between atoms: _233  and  _236
REMARK   85  A    between atoms: _236  and  _237
REMARK   86  A    between atoms: _242  and  _243
REMARK   87  A    between atoms: _245  and  _247
REMARK   88  A    between atoms: _247  and  _248
REMARK   89  A    between atoms: _247  and  _250
REMARK   90  A    between atoms: _250  and  _251
REMARK   91  A    between atoms: _254  and  _256
REMARK   92  A    between atoms: _256  and  _257
REMARK   93  A    between atoms: _256  and  _259
REMARK   94  A    between atoms: _259  and  _260
REMARK   95  A    between atoms: _270  and  _272
REMARK   96  A    between atoms: _272  and  _273
REMARK   97  A    between atoms: _272  and  _275
REMARK   98  A    between atoms: _275  and  _276
REMARK   99  A    between atoms: _281  and  _283
REMARK  100  A    between atoms: _283  and  _284
REMARK  101  A    between atoms: _283  and  _286
REMARK  102  A    between atoms: _286  and  _287
REMARK  103  A    between atoms: _291  and  ZN_414
REMARK  104  A    between atoms: _292  and  _294
REMARK  105  A    between atoms: _294  and  _295
REMARK  106  A    between atoms: _294  and  _297
REMARK  107  A    between atoms: _297  and  _298
REMARK  108  A    between atoms: _301  and  _303
REMARK  109  A    between atoms: _303  and  _304
REMARK  110  A    between atoms: _306  and  _308
REMARK  111  A    between atoms: _308  and  _309
REMARK  112  A    between atoms: _308  and  _311
REMARK  113  A    between atoms: _311  and  _312
REMARK  114  A    between atoms: _315  and  _317
REMARK  115  A    between atoms: _317  and  _318
REMARK  116  A    between atoms: _317  and  _320
REMARK  117  A    between atoms: _320  and  _321
REMARK  118  A    between atoms: _324  and  _326
REMARK  119  A    between atoms: _326  and  _327
REMARK  120  A    between atoms: _330  and  _332
REMARK  121  A    between atoms: _332  and  _333
REMARK  122  A    between atoms: _336  and  _338
REMARK  123  A    between atoms: _338  and  _339
REMARK  124  A    between atoms: _338  and  _341
REMARK  125  A    between atoms: _341  and  _342
REMARK  126  A    between atoms: _347  and  _348
REMARK  127  A    between atoms: _350  and  _352
REMARK  128  A    between atoms: _352  and  _353
REMARK  129  A    between atoms: _352  and  _355
REMARK  130  A    between atoms: _355  and  _356
REMARK  131  A    between atoms: _359  and  _361
REMARK  132  A    between atoms: _361  and  _362
REMARK  133  A    between atoms: _361  and  _364
REMARK  134  A    between atoms: _364  and  _365
REMARK  135  A    between atoms: _368  and  _370
REMARK  136  A    between atoms: _370  and  _371
REMARK  137  A    between atoms: _370  and  _373
REMARK  138  A    between atoms: _373  and  _374
REMARK  139  A    between atoms: _374  and  _375
REMARK  140  A    between atoms: _378  and  _380
REMARK  141  A    between atoms: _380  and  _381
REMARK  142  A    between atoms: _380  and  _383
REMARK  143  A    between atoms: _383  and  _384
REMARK  144  A    between atoms: _384  and  _385
REMARK  145  A    between atoms: _385  and  _386
REMARK  146  A    between atoms: _395  and  _397
REMARK  147  A    between atoms: _397  and  _398
REMARK  148  A    between atoms: _400  and  _402
REMARK  149  A    between atoms: _402  and  _403
REMARK  150  A    between atoms: _402  and  _405
REMARK  151  A    between atoms: _405  and  _406
REMARK  152  A    between atoms: _409  and  _411
REMARK  153  A    between atoms: _411  and  _412
REMARK                            x       y       z     vdW  Elec       q    Type
REMARK                         _______ _______ _______ _____ _____    ______ ____
ROOT
ATOM      1  O   HOH     1      25.935  63.121  13.502  0.00  0.00    +0.000 OA
ENDROOT
TORSDOF 0
REMARK  Name = ../refined-set-2016/1ps3/1ps3_pocket.pdb
REMARK  153 active torsions:
REMARK  status: ('A' for Active; 'I' for Inactive)
REMARK    1  A    between atoms: _1  and  _3
REMARK    2  A    between atoms: _14  and  _17
REMARK    3  A    between atoms: _17  and  _18
REMARK    4  A    between atoms: _25  and  _26
REMARK    5  A    between atoms: _33  and  _34
REMARK    6  A    between atoms: _39  and  _41
REMARK    7  A    between atoms: _41  and  _42
REMARK    8  A    between atoms: _44  and  _46
REMARK    9  A    between atoms: _46  and  _47
REMARK   10  A    between atoms: _46  and  _49
REMARK   11  A    between atoms: _49  and  _50
REMARK   12  A    between atoms: _60  and  _62
REMARK   13  A    between atoms: _62  and  _63
REMARK   14  A    between atoms: _62  and  _65
REMARK   15  A    between atoms: _65  and  _66
REMARK   16  A    between atoms: _69  and  _71
REMARK   17  A    between atoms: _71  and  _72
REMARK   18  A    between atoms: _71  and  _74
REMARK   19  A    between atoms: _74  and  _75
REMARK   20  A    between atoms: _80  and  _81
REMARK   21  A    between atoms: _83  and  _85
REMARK   22  A    between atoms: _85  and  _86
REMARK   23  A    between atoms: _85  and  _88
REMARK   24  A    between atoms: _88  and  _89
REMARK   25  A    between atoms: _89  and  _90
REMARK   26  A    between atoms: _93  and  _95
REMARK   27  A    between atoms: _95  and  _96
REMARK   28  A    between atoms: _95  and  _98
REMARK   29  A    between atoms: _98  and  _99
REMARK   30  A    between atoms: _99  and  _100
REMARK   31  A    between atoms: _102  and  _104
REMARK   32  A    between atoms: _104  and  _105
REMARK   33  A    between atoms: _104  and  _107
REMARK   34  A    between atoms: _107  and  _108
REMARK   35  A    between atoms: _111  and  _113
REMARK   36  A    between atoms: _113  and  _114
REMARK   37  A    between atoms: _113  and  _116
REMARK   38  A    between atoms: _116  and  _117
REMARK   39  A    between atoms: _117  and  _118
REMARK   40  A    between atoms: _118  and  ZN_414
REMARK   41  A    between atoms: _121  and  _122
REMARK   42  A    between atoms: _127  and  _129
REMARK   43  A    between atoms: _129  and  _130
REMARK   44  A    between atoms: _129  and  _132
REMARK   45  A    between atoms: _132  and  _133
REMARK   46  A    between atoms: _139  and  _141
REMARK   47  A    between atoms: _141  and  _142
REMARK   48  A    between atoms: _141  and  _144
REMARK   49  A    between atoms: _144  and  _145
REMARK   50  A    between atoms: _145  and  _146
REMARK   51  A    between atoms: _146  and  _147
REMARK   52  A    between atoms: _156  and  _158
REMARK   53  A    between atoms: _158  and  _159
REMARK   54  A    between atoms: _158  and  _161
REMARK   55  A    between atoms: _161  and  _162
REMARK   56  A    between atoms: _167  and  _168
REMARK   57  A    between atoms: _170  and  _172
REMARK   58  A    between atoms: _172  and  _173
REMARK   59  A    between atoms: _172  and  _175
REMARK   60  A    between atoms: _175  and  _176
REMARK   61  A    between atoms: _178  and  _180
REMARK   62  A    between atoms: _180  and  _181
REMARK   63  A    between atoms: _180  and  _183
REMARK   64  A    between atoms: _183  and  _184
REMARK   65  A    between atoms: _189  and  _190
REMARK   66  A    between atoms: _192  and  _194
REMARK   67  A    between atoms: _194  and  _195
REMARK   68  A    between atoms: _194  and  _197
REMARK   69  A    between atoms: _197  and  _198
REMARK   70  A    between atoms: _201  and  _203
REMARK   71  A    between atoms: _203  and  _204
REMARK   72  A    between atoms: _203  and  _206
REMARK   73  A    between atoms: _206  and  _207
REMARK   74  A    between atoms: _210  and  _212
REMARK   75  A    between atoms: _212  and  _213
REMARK   76  A    between atoms: _212  and  _215
REMARK   77  A    between atoms: _215  and  _216
REMARK   78  A    between atoms: _219  and  _221
REMARK   79  A    between atoms: _221  and  _222
REMARK   80  A    between atoms: _221  and  _224
REMARK   81  A    between atoms: _224  and  _225
REMARK   82  A    between atoms: _231  and  _233
REMARK   83  A    between atoms: _233  and  _234
REMARK   84  A    between atoms: _233  and  _236
REMARK   85  A    between atoms: _236  and  _237
REMARK   86  A    between atoms: _242  and  _243
REMARK   87  A    between atoms: _245  and  _247
REMARK   88  A    between atoms: _247  and  _248
REMARK   89  A    between atoms: _247  and  _250
REMARK   90  A    between atoms: _250  and  _251
REMARK   91  A    between atoms: _254  and  _256
REMARK   92  A    between atoms: _256  and  _257
REMARK   93  A    between atoms: _256  and  _259
REMARK   94  A    between atoms: _259  and  _260
REMARK   95  A    between atoms: _270  and  _272
REMARK   96  A    between atoms: _272  and  _273
REMARK   97  A    between atoms: _272  and  _275
REMARK   98  A    between atoms: _275  and  _276
REMARK   99  A    between atoms: _281  and  _283
REMARK  100  A    between atoms: _283  and  _284
REMARK  101  A    between atoms: _283  and  _286
REMARK  102  A    between atoms: _286  and  _287
REMARK  103  A    between atoms: _291  and  ZN_414
REMARK  104  A    between atoms: _292  and  _294
REMARK  105  A    between atoms: _294  and  _295
REMARK  106  A    between atoms: _294  and  _297
REMARK  107  A    between atoms: _297  and  _298
REMARK  108  A    between atoms: _301  and  _303
REMARK  109  A    between atoms: _303  and  _304
REMARK  110  A    between atoms: _306  and  _308
REMARK  111  A    between atoms: _308  and  _309
REMARK  112  A    between atoms: _308  and  _311
REMARK  113  A    between atoms: _311  and  _312
REMARK  114  A    between atoms: _315  and  _317
REMARK  115  A    between atoms: _317  and  _318
REMARK  116  A    between atoms: _317  and  _320
REMARK  117  A    between atoms: _320  and  _321
REMARK  118  A    between atoms: _324  and  _326
REMARK  119  A    between atoms: _326  and  _327
REMARK  120  A    between atoms: _330  and  _332
REMARK  121  A    between atoms: _332  and  _333
REMARK  122  A    between atoms: _336  and  _338
REMARK  123  A    between atoms: _338  and  _339
REMARK  124  A    between atoms: _338  and  _341
REMARK  125  A    between atoms: _341  and  _342
REMARK  126  A    between atoms: _347  and  _348
REMARK  127  A    between atoms: _350  and  _352
REMARK  128  A    between atoms: _352  and  _353
REMARK  129  A    between atoms: _352  and  _355
REMARK  130  A    between atoms: _355  and  _356
REMARK  131  A    between atoms: _359  and  _361
REMARK  132  A    between atoms: _361  and  _362
REMARK  133  A    between atoms: _361  and  _364
REMARK  134  A    between atoms: _364  and  _365
REMARK  135  A    between atoms: _368  and  _370
REMARK  136  A    between atoms: _370  and  _371
REMARK  137  A    between atoms: _370  and  _373
REMARK  138  A    between atoms: _373  and  _374
REMARK  139  A    between atoms: _374  and  _375
REMARK  140  A    between atoms: _378  and  _380
REMARK  141  A    between atoms: _380  and  _381
REMARK  142  A    between atoms: _380  and  _383
REMARK  143  A    between atoms: _383  and  _384
REMARK  144  A    between atoms: _384  and  _385
REMARK  145  A    between atoms: _385  and  _386
REMARK  146  A    between atoms: _395  and  _397
REMARK  147  A    between atoms: _397  and  _398
REMARK  148  A    between atoms: _400  and  _402
REMARK  149  A    between atoms: _402  and  _403
REMARK  150  A    between atoms: _402  and  _405
REMARK  151  A    between atoms: _405  and  _406
REMARK  152  A    between atoms: _409  and  _411
REMARK  153  A    between atoms: _411  and  _412
REMARK                            x       y       z     vdW  Elec       q    Type
REMARK                         _______ _______ _______ _____ _____    ______ ____
ROOT
ATOM      1  O   HOH     1      28.534  63.423  11.044  0.00  0.00    +0.000 OA
ENDROOT
TORSDOF 0
REMARK  Name = ../refined-set-2016/1ps3/1ps3_pocket.pdb
REMARK  153 active torsions:
REMARK  status: ('A' for Active; 'I' for Inactive)
REMARK    1  A    between atoms: _1  and  _3
REMARK    2  A    between atoms: _14  and  _17
REMARK    3  A    between atoms: _17  and  _18
REMARK    4  A    between atoms: _25  and  _26
REMARK    5  A    between atoms: _33  and  _34
REMARK    6  A    between atoms: _39  and  _41
REMARK    7  A    between atoms: _41  and  _42
REMARK    8  A    between atoms: _44  and  _46
REMARK    9  A    between atoms: _46  and  _47
REMARK   10  A    between atoms: _46  and  _49
REMARK   11  A    between atoms: _49  and  _50
REMARK   12  A    between atoms: _60  and  _62
REMARK   13  A    between atoms: _62  and  _63
REMARK   14  A    between atoms: _62  and  _65
REMARK   15  A    between atoms: _65  and  _66
REMARK   16  A    between atoms: _69  and  _71
REMARK   17  A    between atoms: _71  and  _72
REMARK   18  A    between atoms: _71  and  _74
REMARK   19  A    between atoms: _74  and  _75
REMARK   20  A    between atoms: _80  and  _81
REMARK   21  A    between atoms: _83  and  _85
REMARK   22  A    between atoms: _85  and  _86
REMARK   23  A    between atoms: _85  and  _88
REMARK   24  A    between atoms: _88  and  _89
REMARK   25  A    between atoms: _89  and  _90
REMARK   26  A    between atoms: _93  and  _95
REMARK   27  A    between atoms: _95  and  _96
REMARK   28  A    between atoms: _95  and  _98
REMARK   29  A    between atoms: _98  and  _99
REMARK   30  A    between atoms: _99  and  _100
REMARK   31  A    between atoms: _102  and  _104
REMARK   32  A    between atoms: _104  and  _105
REMARK   33  A    between atoms: _104  and  _107
REMARK   34  A    between atoms: _107  and  _108
REMARK   35  A    between atoms: _111  and  _113
REMARK   36  A    between atoms: _113  and  _114
REMARK   37  A    between atoms: _113  and  _116
REMARK   38  A    between atoms: _116  and  _117
REMARK   39  A    between atoms: _117  and  _118
REMARK   40  A    between atoms: _118  and  ZN_414
REMARK   41  A    between atoms: _121  and  _122
REMARK   42  A    between atoms: _127  and  _129
REMARK   43  A    between atoms: _129  and  _130
REMARK   44  A    between atoms: _129  and  _132
REMARK   45  A    between atoms: _132  and  _133
REMARK   46  A    between atoms: _139  and  _141
REMARK   47  A    between atoms: _141  and  _142
REMARK   48  A    between atoms: _141  and  _144
REMARK   49  A    between atoms: _144  and  _145
REMARK   50  A    between atoms: _145  and  _146
REMARK   51  A    between atoms: _146  and  _147
REMARK   52  A    between atoms: _156  and  _158
REMARK   53  A    between atoms: _158  and  _159
REMARK   54  A    between atoms: _158  and  _161
REMARK   55  A    between atoms: _161  and  _162
REMARK   56  A    between atoms: _167  and  _168
REMARK   57  A    between atoms: _170  and  _172
REMARK   58  A    between atoms: _172  and  _173
REMARK   59  A    between atoms: _172  and  _175
REMARK   60  A    between atoms: _175  and  _176
REMARK   61  A    between atoms: _178  and  _180
REMARK   62  A    between atoms: _180  and  _181
REMARK   63  A    between atoms: _180  and  _183
REMARK   64  A    between atoms: _183  and  _184
REMARK   65  A    between atoms: _189  and  _190
REMARK   66  A    between atoms: _192  and  _194
REMARK   67  A    between atoms: _194  and  _195
REMARK   68  A    between atoms: _194  and  _197
REMARK   69  A    between atoms: _197  and  _198
REMARK   70  A    between atoms: _201  and  _203
REMARK   71  A    between atoms: _203  and  _204
REMARK   72  A    between atoms: _203  and  _206
REMARK   73  A    between atoms: _206  and  _207
REMARK   74  A    between atoms: _210  and  _212
REMARK   75  A    between atoms: _212  and  _213
REMARK   76  A    between atoms: _212  and  _215
REMARK   77  A    between atoms: _215  and  _216
REMARK   78  A    between atoms: _219  and  _221
REMARK   79  A    between atoms: _221  and  _222
REMARK   80  A    between atoms: _221  and  _224
REMARK   81  A    between atoms: _224  and  _225
REMARK   82  A    between atoms: _231  and  _233
REMARK   83  A    between atoms: _233  and  _234
REMARK   84  A    between atoms: _233  and  _236
REMARK   85  A    between atoms: _236  and  _237
REMARK   86  A    between atoms: _242  and  _243
REMARK   87  A    between atoms: _245  and  _247
REMARK   88  A    between atoms: _247  and  _248
REMARK   89  A    between atoms: _247  and  _250
REMARK   90  A    between atoms: _250  and  _251
REMARK   91  A    between atoms: _254  and  _256
REMARK   92  A    between atoms: _256  and  _257
REMARK   93  A    between atoms: _256  and  _259
REMARK   94  A    between atoms: _259  and  _260
REMARK   95  A    between atoms: _270  and  _272
REMARK   96  A    between atoms: _272  and  _273
REMARK   97  A    between atoms: _272  and  _275
REMARK   98  A    between atoms: _275  and  _276
REMARK   99  A    between atoms: _281  and  _283
REMARK  100  A    between atoms: _283  and  _284
REMARK  101  A    between atoms: _283  and  _286
REMARK  102  A    between atoms: _286  and  _287
REMARK  103  A    between atoms: _291  and  ZN_414
REMARK  104  A    between atoms: _292  and  _294
REMARK  105  A    between atoms: _294  and  _295
REMARK  106  A    between atoms: _294  and  _297
REMARK  107  A    between atoms: _297  and  _298
REMARK  108  A    between atoms: _301  and  _303
REMARK  109  A    between atoms: _303  and  _304
REMARK  110  A    between atoms: _306  and  _308
REMARK  111  A    between atoms: _308  and  _309
REMARK  112  A    between atoms: _308  and  _311
REMARK  113  A    between atoms: _311  and  _312
REMARK  114  A    between atoms: _315  and  _317
REMARK  115  A    between atoms: _317  and  _318
REMARK  116  A    between atoms: _317  and  _320
REMARK  117  A    between atoms: _320  and  _321
REMARK  118  A    between atoms: _324  and  _326
REMARK  119  A    between atoms: _326  and  _327
REMARK  120  A    between atoms: _330  and  _332
REMARK  121  A    between atoms: _332  and  _333
REMARK  122  A    between atoms: _336  and  _338
REMARK  123  A    between atoms: _338  and  _339
REMARK  124  A    between atoms: _338  and  _341
REMARK  125  A    between atoms: _341  and  _342
REMARK  126  A    between atoms: _347  and  _348
REMARK  127  A    between atoms: _350  and  _352
REMARK  128  A    between atoms: _352  and  _353
REMARK  129  A    between atoms: _352  and  _355
REMARK  130  A    between atoms: _355  and  _356
REMARK  131  A    between atoms: _359  and  _361
REMARK  132  A    between atoms: _361  and  _362
REMARK  133  A    between atoms: _361  and  _364
REMARK  134  A    between atoms: _364  and  _365
REMARK  135  A    between atoms: _368  and  _370
REMARK  136  A    between atoms: _370  and  _371
REMARK  137  A    between atoms: _370  and  _373
REMARK  138  A    between atoms: _373  and  _374
REMARK  139  A    between atoms: _374  and  _375
REMARK  140  A    between atoms: _378  and  _380
REMARK  141  A    between atoms: _380  and  _381
REMARK  142  A    between atoms: _380  and  _383
REMARK  143  A    between atoms: _383  and  _384
REMARK  144  A    between atoms: _384  and  _385
REMARK  145  A    between atoms: _385  and  _386
REMARK  146  A    between atoms: _395  and  _397
REMARK  147  A    between atoms: _397  and  _398
REMARK  148  A    between atoms: _400  and  _402
REMARK  149  A    between atoms: _402  and  _403
REMARK  150  A    between atoms: _402  and  _405
REMARK  151  A    between atoms: _405  and  _406
REMARK  152  A    between atoms: _409  and  _411
REMARK  153  A    between atoms: _411  and  _412
REMARK                            x       y       z     vdW  Elec       q    Type
REMARK                         _______ _______ _______ _____ _____    ______ ____
ROOT
ATOM      1  O   HOH     1      28.763  64.455  14.333  0.00  0.00    +0.000 OA
ENDROOT
TORSDOF 0
REMARK  Name = ../refined-set-2016/1ps3/1ps3_pocket.pdb
REMARK  153 active torsions:
REMARK  status: ('A' for Active; 'I' for Inactive)
REMARK    1  A    between atoms: _1  and  _3
REMARK    2  A    between atoms: _14  and  _17
REMARK    3  A    between atoms: _17  and  _18
REMARK    4  A    between atoms: _25  and  _26
REMARK    5  A    between atoms: _33  and  _34
REMARK    6  A    between atoms: _39  and  _41
REMARK    7  A    between atoms: _41  and  _42
REMARK    8  A    between atoms: _44  and  _46
REMARK    9  A    between atoms: _46  and  _47
REMARK   10  A    between atoms: _46  and  _49
REMARK   11  A    between atoms: _49  and  _50
REMARK   12  A    between atoms: _60  and  _62
REMARK   13  A    between atoms: _62  and  _63
REMARK   14  A    between atoms: _62  and  _65
REMARK   15  A    between atoms: _65  and  _66
REMARK   16  A    between atoms: _69  and  _71
REMARK   17  A    between atoms: _71  and  _72
REMARK   18  A    between atoms: _71  and  _74
REMARK   19  A    between atoms: _74  and  _75
REMARK   20  A    between atoms: _80  and  _81
REMARK   21  A    between atoms: _83  and  _85
REMARK   22  A    between atoms: _85  and  _86
REMARK   23  A    between atoms: _85  and  _88
REMARK   24  A    between atoms: _88  and  _89
REMARK   25  A    between atoms: _89  and  _90
REMARK   26  A    between atoms: _93  and  _95
REMARK   27  A    between atoms: _95  and  _96
REMARK   28  A    between atoms: _95  and  _98
REMARK   29  A    between atoms: _98  and  _99
REMARK   30  A    between atoms: _99  and  _100
REMARK   31  A    between atoms: _102  and  _104
REMARK   32  A    between atoms: _104  and  _105
REMARK   33  A    between atoms: _104  and  _107
REMARK   34  A    between atoms: _107  and  _108
REMARK   35  A    between atoms: _111  and  _113
REMARK   36  A    between atoms: _113  and  _114
REMARK   37  A    between atoms: _113  and  _116
REMARK   38  A    between atoms: _116  and  _117
REMARK   39  A    between atoms: _117  and  _118
REMARK   40  A    between atoms: _118  and  ZN_414
REMARK   41  A    between atoms: _121  and  _122
REMARK   42  A    between atoms: _127  and  _129
REMARK   43  A    between atoms: _129  and  _130
REMARK   44  A    between atoms: _129  and  _132
REMARK   45  A    between atoms: _132  and  _133
REMARK   46  A    between atoms: _139  and  _141
REMARK   47  A    between atoms: _141  and  _142
REMARK   48  A    between atoms: _141  and  _144
REMARK   49  A    between atoms: _144  and  _145
REMARK   50  A    between atoms: _145  and  _146
REMARK   51  A    between atoms: _146  and  _147
REMARK   52  A    between atoms: _156  and  _158
REMARK   53  A    between atoms: _158  and  _159
REMARK   54  A    between atoms: _158  and  _161
REMARK   55  A    between atoms: _161  and  _162
REMARK   56  A    between atoms: _167  and  _168
REMARK   57  A    between atoms: _170  and  _172
REMARK   58  A    between atoms: _172  and  _173
REMARK   59  A    between atoms: _172  and  _175
REMARK   60  A    between atoms: _175  and  _176
REMARK   61  A    between atoms: _178  and  _180
REMARK   62  A    between atoms: _180  and  _181
REMARK   63  A    between atoms: _180  and  _183
REMARK   64  A    between atoms: _183  and  _184
REMARK   65  A    between atoms: _189  and  _190
REMARK   66  A    between atoms: _192  and  _194
REMARK   67  A    between atoms: _194  and  _195
REMARK   68  A    between atoms: _194  and  _197
REMARK   69  A    between atoms: _197  and  _198
REMARK   70  A    between atoms: _201  and  _203
REMARK   71  A    between atoms: _203  and  _204
REMARK   72  A    between atoms: _203  and  _206
REMARK   73  A    between atoms: _206  and  _207
REMARK   74  A    between atoms: _210  and  _212
REMARK   75  A    between atoms: _212  and  _213
REMARK   76  A    between atoms: _212  and  _215
REMARK   77  A    between atoms: _215  and  _216
REMARK   78  A    between atoms: _219  and  _221
REMARK   79  A    between atoms: _221  and  _222
REMARK   80  A    between atoms: _221  and  _224
REMARK   81  A    between atoms: _224  and  _225
REMARK   82  A    between atoms: _231  and  _233
REMARK   83  A    between atoms: _233  and  _234
REMARK   84  A    between atoms: _233  and  _236
REMARK   85  A    between atoms: _236  and  _237
REMARK   86  A    between atoms: _242  and  _243
REMARK   87  A    between atoms: _245  and  _247
REMARK   88  A    between atoms: _247  and  _248
REMARK   89  A    between atoms: _247  and  _250
REMARK   90  A    between atoms: _250  and  _251
REMARK   91  A    between atoms: _254  and  _256
REMARK   92  A    between atoms: _256  and  _257
REMARK   93  A    between atoms: _256  and  _259
REMARK   94  A    between atoms: _259  and  _260
REMARK   95  A    between atoms: _270  and  _272
REMARK   96  A    between atoms: _272  and  _273
REMARK   97  A    between atoms: _272  and  _275
REMARK   98  A    between atoms: _275  and  _276
REMARK   99  A    between atoms: _281  and  _283
REMARK  100  A    between atoms: _283  and  _284
REMARK  101  A    between atoms: _283  and  _286
REMARK  102  A    between atoms: _286  and  _287
REMARK  103  A    between atoms: _291  and  ZN_414
REMARK  104  A    between atoms: _292  and  _294
REMARK  105  A    between atoms: _294  and  _295
REMARK  106  A    between atoms: _294  and  _297
REMARK  107  A    between atoms: _297  and  _298
REMARK  108  A    between atoms: _301  and  _303
REMARK  109  A    between atoms: _303  and  _304
REMARK  110  A    between atoms: _306  and  _308
REMARK  111  A    between atoms: _308  and  _309
REMARK  112  A    between atoms: _308  and  _311
REMARK  113  A    between atoms: _311  and  _312
REMARK  114  A    between atoms: _315  and  _317
REMARK  115  A    between atoms: _317  and  _318
REMARK  116  A    between atoms: _317  and  _320
REMARK  117  A    between atoms: _320  and  _321
REMARK  118  A    between atoms: _324  and  _326
REMARK  119  A    between atoms: _326  and  _327
REMARK  120  A    between atoms: _330  and  _332
REMARK  121  A    between atoms: _332  and  _333
REMARK  122  A    between atoms: _336  and  _338
REMARK  123  A    between atoms: _338  and  _339
REMARK  124  A    between atoms: _338  and  _341
REMARK  125  A    between atoms: _341  and  _342
REMARK  126  A    between atoms: _347  and  _348
REMARK  127  A    between atoms: _350  and  _352
REMARK  128  A    between atoms: _352  and  _353
REMARK  129  A    between atoms: _352  and  _355
REMARK  130  A    between atoms: _355  and  _356
REMARK  131  A    between atoms: _359  and  _361
REMARK  132  A    between atoms: _361  and  _362
REMARK  133  A    between atoms: _361  and  _364
REMARK  134  A    between atoms: _364  and  _365
REMARK  135  A    between atoms: _368  and  _370
REMARK  136  A    between atoms: _370  and  _371
REMARK  137  A    between atoms: _370  and  _373
REMARK  138  A    between atoms: _373  and  _374
REMARK  139  A    between atoms: _374  and  _375
REMARK  140  A    between atoms: _378  and  _380
REMARK  141  A    between atoms: _380  and  _381
REMARK  142  A    between atoms: _380  and  _383
REMARK  143  A    between atoms: _383  and  _384
REMARK  144  A    between atoms: _384  and  _385
REMARK  145  A    between atoms: _385  and  _386
REMARK  146  A    between atoms: _395  and  _397
REMARK  147  A    between atoms: _397  and  _398
REMARK  148  A    between atoms: _400  and  _402
REMARK  149  A    between atoms: _402  and  _403
REMARK  150  A    between atoms: _402  and  _405
REMARK  151  A    between atoms: _405  and  _406
REMARK  152  A    between atoms: _409  and  _411
REMARK  153  A    between atoms: _411  and  _412
REMARK                            x       y       z     vdW  Elec       q    Type
REMARK                         _______ _______ _______ _____ _____    ______ ____
ROOT
ATOM      1  O   HOH     1      24.572  63.383  11.563  0.00  0.00    +0.000 OA
ENDROOT
TORSDOF 0
REMARK  Name = ../refined-set-2016/1ps3/1ps3_pocket.pdb
REMARK  153 active torsions:
REMARK  status: ('A' for Active; 'I' for Inactive)
REMARK    1  A    between atoms: _1  and  _3
REMARK    2  A    between atoms: _14  and  _17
REMARK    3  A    between atoms: _17  and  _18
REMARK    4  A    between atoms: _25  and  _26
REMARK    5  A    between atoms: _33  and  _34
REMARK    6  A    between atoms: _39  and  _41
REMARK    7  A    between atoms: _41  and  _42
REMARK    8  A    between atoms: _44  and  _46
REMARK    9  A    between atoms: _46  and  _47
REMARK   10  A    between atoms: _46  and  _49
REMARK   11  A    between atoms: _49  and  _50
REMARK   12  A    between atoms: _60  and  _62
REMARK   13  A    between atoms: _62  and  _63
REMARK   14  A    between atoms: _62  and  _65
REMARK   15  A    between atoms: _65  and  _66
REMARK   16  A    between atoms: _69  and  _71
REMARK   17  A    between atoms: _71  and  _72
REMARK   18  A    between atoms: _71  and  _74
REMARK   19  A    between atoms: _74  and  _75
REMARK   20  A    between atoms: _80  and  _81
REMARK   21  A    between atoms: _83  and  _85
REMARK   22  A    between atoms: _85  and  _86
REMARK   23  A    between atoms: _85  and  _88
REMARK   24  A    between atoms: _88  and  _89
REMARK   25  A    between atoms: _89  and  _90
REMARK   26  A    between atoms: _93  and  _95
REMARK   27  A    between atoms: _95  and  _96
REMARK   28  A    between atoms: _95  and  _98
REMARK   29  A    between atoms: _98  and  _99
REMARK   30  A    between atoms: _99  and  _100
REMARK   31  A    between atoms: _102  and  _104
REMARK   32  A    between atoms: _104  and  _105
REMARK   33  A    between atoms: _104  and  _107
REMARK   34  A    between atoms: _107  and  _108
REMARK   35  A    between atoms: _111  and  _113
REMARK   36  A    between atoms: _113  and  _114
REMARK   37  A    between atoms: _113  and  _116
REMARK   38  A    between atoms: _116  and  _117
REMARK   39  A    between atoms: _117  and  _118
REMARK   40  A    between atoms: _118  and  ZN_414
REMARK   41  A    between atoms: _121  and  _122
REMARK   42  A    between atoms: _127  and  _129
REMARK   43  A    between atoms: _129  and  _130
REMARK   44  A    between atoms: _129  and  _132
REMARK   45  A    between atoms: _132  and  _133
REMARK   46  A    between atoms: _139  and  _141
REMARK   47  A    between atoms: _141  and  _142
REMARK   48  A    between atoms: _141  and  _144
REMARK   49  A    between atoms: _144  and  _145
REMARK   50  A    between atoms: _145  and  _146
REMARK   51  A    between atoms: _146  and  _147
REMARK   52  A    between atoms: _156  and  _158
REMARK   53  A    between atoms: _158  and  _159
REMARK   54  A    between atoms: _158  and  _161
REMARK   55  A    between atoms: _161  and  _162
REMARK   56  A    between atoms: _167  and  _168
REMARK   57  A    between atoms: _170  and  _172
REMARK   58  A    between atoms: _172  and  _173
REMARK   59  A    between atoms: _172  and  _175
REMARK   60  A    between atoms: _175  and  _176
REMARK   61  A    between atoms: _178  and  _180
REMARK   62  A    between atoms: _180  and  _181
REMARK   63  A    between atoms: _180  and  _183
REMARK   64  A    between atoms: _183  and  _184
REMARK   65  A    between atoms: _189  and  _190
REMARK   66  A    between atoms: _192  and  _194
REMARK   67  A    between atoms: _194  and  _195
REMARK   68  A    between atoms: _194  and  _197
REMARK   69  A    between atoms: _197  and  _198
REMARK   70  A    between atoms: _201  and  _203
REMARK   71  A    between atoms: _203  and  _204
REMARK   72  A    between atoms: _203  and  _206
REMARK   73  A    between atoms: _206  and  _207
REMARK   74  A    between atoms: _210  and  _212
REMARK   75  A    between atoms: _212  and  _213
REMARK   76  A    between atoms: _212  and  _215
REMARK   77  A    between atoms: _215  and  _216
REMARK   78  A    between atoms: _219  and  _221
REMARK   79  A    between atoms: _221  and  _222
REMARK   80  A    between atoms: _221  and  _224
REMARK   81  A    between atoms: _224  and  _225
REMARK   82  A    between atoms: _231  and  _233
REMARK   83  A    between atoms: _233  and  _234
REMARK   84  A    between atoms: _233  and  _236
REMARK   85  A    between atoms: _236  and  _237
REMARK   86  A    between atoms: _242  and  _243
REMARK   87  A    between atoms: _245  and  _247
REMARK   88  A    between atoms: _247  and  _248
REMARK   89  A    between atoms: _247  and  _250
REMARK   90  A    between atoms: _250  and  _251
REMARK   91  A    between atoms: _254  and  _256
REMARK   92  A    between atoms: _256  and  _257
REMARK   93  A    between atoms: _256  and  _259
REMARK   94  A    between atoms: _259  and  _260
REMARK   95  A    between atoms: _270  and  _272
REMARK   96  A    between atoms: _272  and  _273
REMARK   97  A    between atoms: _272  and  _275
REMARK   98  A    between atoms: _275  and  _276
REMARK   99  A    between atoms: _281  and  _283
REMARK  100  A    between atoms: _283  and  _284
REMARK  101  A    between atoms: _283  and  _286
REMARK  102  A    between atoms: _286  and  _287
REMARK  103  A    between atoms: _291  and  ZN_414
REMARK  104  A    between atoms: _292  and  _294
REMARK  105  A    between atoms: _294  and  _295
REMARK  106  A    between atoms: _294  and  _297
REMARK  107  A    between atoms: _297  and  _298
REMARK  108  A    between atoms: _301  and  _303
REMARK  109  A    between atoms: _303  and  _304
REMARK  110  A    between atoms: _306  and  _308
REMARK  111  A    between atoms: _308  and  _309
REMARK  112  A    between atoms: _308  and  _311
REMARK  113  A    between atoms: _311  and  _312
REMARK  114  A    between atoms: _315  and  _317
REMARK  115  A    between atoms: _317  and  _318
REMARK  116  A    between atoms: _317  and  _320
REMARK  117  A    between atoms: _320  and  _321
REMARK  118  A    between atoms: _324  and  _326
REMARK  119  A    between atoms: _326  and  _327
REMARK  120  A    between atoms: _330  and  _332
REMARK  121  A    between atoms: _332  and  _333
REMARK  122  A    between atoms: _336  and  _338
REMARK  123  A    between atoms: _338  and  _339
REMARK  124  A    between atoms: _338  and  _341
REMARK  125  A    between atoms: _341  and  _342
REMARK  126  A    between atoms: _347  and  _348
REMARK  127  A    between atoms: _350  and  _352
REMARK  128  A    between atoms: _352  and  _353
REMARK  129  A    between atoms: _352  and  _355
REMARK  130  A    between atoms: _355  and  _356
REMARK  131  A    between atoms: _359  and  _361
REMARK  132  A    between atoms: _361  and  _362
REMARK  133  A    between atoms: _361  and  _364
REMARK  134  A    between atoms: _364  and  _365
REMARK  135  A    between atoms: _368  and  _370
REMARK  136  A    between atoms: _370  and  _371
REMARK  137  A    between atoms: _370  and  _373
REMARK  138  A    between atoms: _373  and  _374
REMARK  139  A    between atoms: _374  and  _375
REMARK  140  A    between atoms: _378  and  _380
REMARK  141  A    between atoms: _380  and  _381
REMARK  142  A    between atoms: _380  and  _383
REMARK  143  A    between atoms: _383  and  _384
REMARK  144  A    between atoms: _384  and  _385
REMARK  145  A    between atoms: _385  and  _386
REMARK  146  A    between atoms: _395  and  _397
REMARK  147  A    between atoms: _397  and  _398
REMARK  148  A    between atoms: _400  and  _402
REMARK  149  A    between atoms: _402  and  _403
REMARK  150  A    between atoms: _402  and  _405
REMARK  151  A    between atoms: _405  and  _406
REMARK  152  A    between atoms: _409  and  _411
REMARK  153  A    between atoms: _411  and  _412
REMARK                            x       y       z     vdW  Elec       q    Type
REMARK                         _______ _______ _______ _____ _____    ______ ____
ROOT
ATOM      1  O   HOH     1      28.424  69.341  12.236  0.00  0.00    +0.000 OA
ENDROOT
TORSDOF 0
REMARK  Name = ../refined-set-2016/1ps3/1ps3_pocket.pdb
REMARK  153 active torsions:
REMARK  status: ('A' for Active; 'I' for Inactive)
REMARK    1  A    between atoms: _1  and  _3
REMARK    2  A    between atoms: _14  and  _17
REMARK    3  A    between atoms: _17  and  _18
REMARK    4  A    between atoms: _25  and  _26
REMARK    5  A    between atoms: _33  and  _34
REMARK    6  A    between atoms: _39  and  _41
REMARK    7  A    between atoms: _41  and  _42
REMARK    8  A    between atoms: _44  and  _46
REMARK    9  A    between atoms: _46  and  _47
REMARK   10  A    between atoms: _46  and  _49
REMARK   11  A    between atoms: _49  and  _50
REMARK   12  A    between atoms: _60  and  _62
REMARK   13  A    between atoms: _62  and  _63
REMARK   14  A    between atoms: _62  and  _65
REMARK   15  A    between atoms: _65  and  _66
REMARK   16  A    between atoms: _69  and  _71
REMARK   17  A    between atoms: _71  and  _72
REMARK   18  A    between atoms: _71  and  _74
REMARK   19  A    between atoms: _74  and  _75
REMARK   20  A    between atoms: _80  and  _81
REMARK   21  A    between atoms: _83  and  _85
REMARK   22  A    between atoms: _85  and  _86
REMARK   23  A    between atoms: _85  and  _88
REMARK   24  A    between atoms: _88  and  _89
REMARK   25  A    between atoms: _89  and  _90
REMARK   26  A    between atoms: _93  and  _95
REMARK   27  A    between atoms: _95  and  _96
REMARK   28  A    between atoms: _95  and  _98
REMARK   29  A    between atoms: _98  and  _99
REMARK   30  A    between atoms: _99  and  _100
REMARK   31  A    between atoms: _102  and  _104
REMARK   32  A    between atoms: _104  and  _105
REMARK   33  A    between atoms: _104  and  _107
REMARK   34  A    between atoms: _107  and  _108
REMARK   35  A    between atoms: _111  and  _113
REMARK   36  A    between atoms: _113  and  _114
REMARK   37  A    between atoms: _113  and  _116
REMARK   38  A    between atoms: _116  and  _117
REMARK   39  A    between atoms: _117  and  _118
REMARK   40  A    between atoms: _118  and  ZN_414
REMARK   41  A    between atoms: _121  and  _122
REMARK   42  A    between atoms: _127  and  _129
REMARK   43  A    between atoms: _129  and  _130
REMARK   44  A    between atoms: _129  and  _132
REMARK   45  A    between atoms: _132  and  _133
REMARK   46  A    between atoms: _139  and  _141
REMARK   47  A    between atoms: _141  and  _142
REMARK   48  A    between atoms: _141  and  _144
REMARK   49  A    between atoms: _144  and  _145
REMARK   50  A    between atoms: _145  and  _146
REMARK   51  A    between atoms: _146  and  _147
REMARK   52  A    between atoms: _156  and  _158
REMARK   53  A    between atoms: _158  and  _159
REMARK   54  A    between atoms: _158  and  _161
REMARK   55  A    between atoms: _161  and  _162
REMARK   56  A    between atoms: _167  and  _168
REMARK   57  A    between atoms: _170  and  _172
REMARK   58  A    between atoms: _172  and  _173
REMARK   59  A    between atoms: _172  and  _175
REMARK   60  A    between atoms: _175  and  _176
REMARK   61  A    between atoms: _178  and  _180
REMARK   62  A    between atoms: _180  and  _181
REMARK   63  A    between atoms: _180  and  _183
REMARK   64  A    between atoms: _183  and  _184
REMARK   65  A    between atoms: _189  and  _190
REMARK   66  A    between atoms: _192  and  _194
REMARK   67  A    between atoms: _194  and  _195
REMARK   68  A    between atoms: _194  and  _197
REMARK   69  A    between atoms: _197  and  _198
REMARK   70  A    between atoms: _201  and  _203
REMARK   71  A    between atoms: _203  and  _204
REMARK   72  A    between atoms: _203  and  _206
REMARK   73  A    between atoms: _206  and  _207
REMARK   74  A    between atoms: _210  and  _212
REMARK   75  A    between atoms: _212  and  _213
REMARK   76  A    between atoms: _212  and  _215
REMARK   77  A    between atoms: _215  and  _216
REMARK   78  A    between atoms: _219  and  _221
REMARK   79  A    between atoms: _221  and  _222
REMARK   80  A    between atoms: _221  and  _224
REMARK   81  A    between atoms: _224  and  _225
REMARK   82  A    between atoms: _231  and  _233
REMARK   83  A    between atoms: _233  and  _234
REMARK   84  A    between atoms: _233  and  _236
REMARK   85  A    between atoms: _236  and  _237
REMARK   86  A    between atoms: _242  and  _243
REMARK   87  A    between atoms: _245  and  _247
REMARK   88  A    between atoms: _247  and  _248
REMARK   89  A    between atoms: _247  and  _250
REMARK   90  A    between atoms: _250  and  _251
REMARK   91  A    between atoms: _254  and  _256
REMARK   92  A    between atoms: _256  and  _257
REMARK   93  A    between atoms: _256  and  _259
REMARK   94  A    between atoms: _259  and  _260
REMARK   95  A    between atoms: _270  and  _272
REMARK   96  A    between atoms: _272  and  _273
REMARK   97  A    between atoms: _272  and  _275
REMARK   98  A    between atoms: _275  and  _276
REMARK   99  A    between atoms: _281  and  _283
REMARK  100  A    between atoms: _283  and  _284
REMARK  101  A    between atoms: _283  and  _286
REMARK  102  A    between atoms: _286  and  _287
REMARK  103  A    between atoms: _291  and  ZN_414
REMARK  104  A    between atoms: _292  and  _294
REMARK  105  A    between atoms: _294  and  _295
REMARK  106  A    between atoms: _294  and  _297
REMARK  107  A    between atoms: _297  and  _298
REMARK  108  A    between atoms: _301  and  _303
REMARK  109  A    between atoms: _303  and  _304
REMARK  110  A    between atoms: _306  and  _308
REMARK  111  A    between atoms: _308  and  _309
REMARK  112  A    between atoms: _308  and  _311
REMARK  113  A    between atoms: _311  and  _312
REMARK  114  A    between atoms: _315  and  _317
REMARK  115  A    between atoms: _317  and  _318
REMARK  116  A    between atoms: _317  and  _320
REMARK  117  A    between atoms: _320  and  _321
REMARK  118  A    between atoms: _324  and  _326
REMARK  119  A    between atoms: _326  and  _327
REMARK  120  A    between atoms: _330  and  _332
REMARK  121  A    between atoms: _332  and  _333
REMARK  122  A    between atoms: _336  and  _338
REMARK  123  A    between atoms: _338  and  _339
REMARK  124  A    between atoms: _338  and  _341
REMARK  125  A    between atoms: _341  and  _342
REMARK  126  A    between atoms: _347  and  _348
REMARK  127  A    between atoms: _350  and  _352
REMARK  128  A    between atoms: _352  and  _353
REMARK  129  A    between atoms: _352  and  _355
REMARK  130  A    between atoms: _355  and  _356
REMARK  131  A    between atoms: _359  and  _361
REMARK  132  A    between atoms: _361  and  _362
REMARK  133  A    between atoms: _361  and  _364
REMARK  134  A    between atoms: _364  and  _365
REMARK  135  A    between atoms: _368  and  _370
REMARK  136  A    between atoms: _370  and  _371
REMARK  137  A    between atoms: _370  and  _373
REMARK  138  A    between atoms: _373  and  _374
REMARK  139  A    between atoms: _374  and  _375
REMARK  140  A    between atoms: _378  and  _380
REMARK  141  A    between atoms: _380  and  _381
REMARK  142  A    between atoms: _380  and  _383
REMARK  143  A    between atoms: _383  and  _384
REMARK  144  A    between atoms: _384  and  _385
REMARK  145  A    between atoms: _385  and  _386
REMARK  146  A    between atoms: _395  and  _397
REMARK  147  A    between atoms: _397  and  _398
REMARK  148  A    between atoms: _400  and  _402
REMARK  149  A    between atoms: _402  and  _403
REMARK  150  A    between atoms: _402  and  _405
REMARK  151  A    between atoms: _405  and  _406
REMARK  152  A    between atoms: _409  and  _411
REMARK  153  A    between atoms: _411  and  _412
REMARK                            x       y       z     vdW  Elec       q    Type
REMARK                         _______ _______ _______ _____ _____    ______ ____
ROOT
ATOM      1  O   HOH     1      33.510  68.894  17.022  0.00  0.00    +0.000 OA
ENDROOT
TORSDOF 0
REMARK  Name = ../refined-set-2016/1ps3/1ps3_pocket.pdb
REMARK  153 active torsions:
REMARK  status: ('A' for Active; 'I' for Inactive)
REMARK    1  A    between atoms: _1  and  _3
REMARK    2  A    between atoms: _14  and  _17
REMARK    3  A    between atoms: _17  and  _18
REMARK    4  A    between atoms: _25  and  _26
REMARK    5  A    between atoms: _33  and  _34
REMARK    6  A    between atoms: _39  and  _41
REMARK    7  A    between atoms: _41  and  _42
REMARK    8  A    between atoms: _44  and  _46
REMARK    9  A    between atoms: _46  and  _47
REMARK   10  A    between atoms: _46  and  _49
REMARK   11  A    between atoms: _49  and  _50
REMARK   12  A    between atoms: _60  and  _62
REMARK   13  A    between atoms: _62  and  _63
REMARK   14  A    between atoms: _62  and  _65
REMARK   15  A    between atoms: _65  and  _66
REMARK   16  A    between atoms: _69  and  _71
REMARK   17  A    between atoms: _71  and  _72
REMARK   18  A    between atoms: _71  and  _74
REMARK   19  A    between atoms: _74  and  _75
REMARK   20  A    between atoms: _80  and  _81
REMARK   21  A    between atoms: _83  and  _85
REMARK   22  A    between atoms: _85  and  _86
REMARK   23  A    between atoms: _85  and  _88
REMARK   24  A    between atoms: _88  and  _89
REMARK   25  A    between atoms: _89  and  _90
REMARK   26  A    between atoms: _93  and  _95
REMARK   27  A    between atoms: _95  and  _96
REMARK   28  A    between atoms: _95  and  _98
REMARK   29  A    between atoms: _98  and  _99
REMARK   30  A    between atoms: _99  and  _100
REMARK   31  A    between atoms: _102  and  _104
REMARK   32  A    between atoms: _104  and  _105
REMARK   33  A    between atoms: _104  and  _107
REMARK   34  A    between atoms: _107  and  _108
REMARK   35  A    between atoms: _111  and  _113
REMARK   36  A    between atoms: _113  and  _114
REMARK   37  A    between atoms: _113  and  _116
REMARK   38  A    between atoms: _116  and  _117
REMARK   39  A    between atoms: _117  and  _118
REMARK   40  A    between atoms: _118  and  ZN_414
REMARK   41  A    between atoms: _121  and  _122
REMARK   42  A    between atoms: _127  and  _129
REMARK   43  A    between atoms: _129  and  _130
REMARK   44  A    between atoms: _129  and  _132
REMARK   45  A    between atoms: _132  and  _133
REMARK   46  A    between atoms: _139  and  _141
REMARK   47  A    between atoms: _141  and  _142
REMARK   48  A    between atoms: _141  and  _144
REMARK   49  A    between atoms: _144  and  _145
REMARK   50  A    between atoms: _145  and  _146
REMARK   51  A    between atoms: _146  and  _147
REMARK   52  A    between atoms: _156  and  _158
REMARK   53  A    between atoms: _158  and  _159
REMARK   54  A    between atoms: _158  and  _161
REMARK   55  A    between atoms: _161  and  _162
REMARK   56  A    between atoms: _167  and  _168
REMARK   57  A    between atoms: _170  and  _172
REMARK   58  A    between atoms: _172  and  _173
REMARK   59  A    between atoms: _172  and  _175
REMARK   60  A    between atoms: _175  and  _176
REMARK   61  A    between atoms: _178  and  _180
REMARK   62  A    between atoms: _180  and  _181
REMARK   63  A    between atoms: _180  and  _183
REMARK   64  A    between atoms: _183  and  _184
REMARK   65  A    between atoms: _189  and  _190
REMARK   66  A    between atoms: _192  and  _194
REMARK   67  A    between atoms: _194  and  _195
REMARK   68  A    between atoms: _194  and  _197
REMARK   69  A    between atoms: _197  and  _198
REMARK   70  A    between atoms: _201  and  _203
REMARK   71  A    between atoms: _203  and  _204
REMARK   72  A    between atoms: _203  and  _206
REMARK   73  A    between atoms: _206  and  _207
REMARK   74  A    between atoms: _210  and  _212
REMARK   75  A    between atoms: _212  and  _213
REMARK   76  A    between atoms: _212  and  _215
REMARK   77  A    between atoms: _215  and  _216
REMARK   78  A    between atoms: _219  and  _221
REMARK   79  A    between atoms: _221  and  _222
REMARK   80  A    between atoms: _221  and  _224
REMARK   81  A    between atoms: _224  and  _225
REMARK   82  A    between atoms: _231  and  _233
REMARK   83  A    between atoms: _233  and  _234
REMARK   84  A    between atoms: _233  and  _236
REMARK   85  A    between atoms: _236  and  _237
REMARK   86  A    between atoms: _242  and  _243
REMARK   87  A    between atoms: _245  and  _247
REMARK   88  A    between atoms: _247  and  _248
REMARK   89  A    between atoms: _247  and  _250
REMARK   90  A    between atoms: _250  and  _251
REMARK   91  A    between atoms: _254  and  _256
REMARK   92  A    between atoms: _256  and  _257
REMARK   93  A    between atoms: _256  and  _259
REMARK   94  A    between atoms: _259  and  _260
REMARK   95  A    between atoms: _270  and  _272
REMARK   96  A    between atoms: _272  and  _273
REMARK   97  A    between atoms: _272  and  _275
REMARK   98  A    between atoms: _275  and  _276
REMARK   99  A    between atoms: _281  and  _283
REMARK  100  A    between atoms: _283  and  _284
REMARK  101  A    between atoms: _283  and  _286
REMARK  102  A    between atoms: _286  and  _287
REMARK  103  A    between atoms: _291  and  ZN_414
REMARK  104  A    between atoms: _292  and  _294
REMARK  105  A    between atoms: _294  and  _295
REMARK  106  A    between atoms: _294  and  _297
REMARK  107  A    between atoms: _297  and  _298
REMARK  108  A    between atoms: _301  and  _303
REMARK  109  A    between atoms: _303  and  _304
REMARK  110  A    between atoms: _306  and  _308
REMARK  111  A    between atoms: _308  and  _309
REMARK  112  A    between atoms: _308  and  _311
REMARK  113  A    between atoms: _311  and  _312
REMARK  114  A    between atoms: _315  and  _317
REMARK  115  A    between atoms: _317  and  _318
REMARK  116  A    between atoms: _317  and  _320
REMARK  117  A    between atoms: _320  and  _321
REMARK  118  A    between atoms: _324  and  _326
REMARK  119  A    between atoms: _326  and  _327
REMARK  120  A    between atoms: _330  and  _332
REMARK  121  A    between atoms: _332  and  _333
REMARK  122  A    between atoms: _336  and  _338
REMARK  123  A    between atoms: _338  and  _339
REMARK  124  A    between atoms: _338  and  _341
REMARK  125  A    between atoms: _341  and  _342
REMARK  126  A    between atoms: _347  and  _348
REMARK  127  A    between atoms: _350  and  _352
REMARK  128  A    between atoms: _352  and  _353
REMARK  129  A    between atoms: _352  and  _355
REMARK  130  A    between atoms: _355  and  _356
REMARK  131  A    between atoms: _359  and  _361
REMARK  132  A    between atoms: _361  and  _362
REMARK  133  A    between atoms: _361  and  _364
REMARK  134  A    between atoms: _364  and  _365
REMARK  135  A    between atoms: _368  and  _370
REMARK  136  A    between atoms: _370  and  _371
REMARK  137  A    between atoms: _370  and  _373
REMARK  138  A    between atoms: _373  and  _374
REMARK  139  A    between atoms: _374  and  _375
REMARK  140  A    between atoms: _378  and  _380
REMARK  141  A    between atoms: _380  and  _381
REMARK  142  A    between atoms: _380  and  _383
REMARK  143  A    between atoms: _383  and  _384
REMARK  144  A    between atoms: _384  and  _385
REMARK  145  A    between atoms: _385  and  _386
REMARK  146  A    between atoms: _395  and  _397
REMARK  147  A    between atoms: _397  and  _398
REMARK  148  A    between atoms: _400  and  _402
REMARK  149  A    between atoms: _402  and  _403
REMARK  150  A    between atoms: _402  and  _405
REMARK  151  A    between atoms: _405  and  _406
REMARK  152  A    between atoms: _409  and  _411
REMARK  153  A    between atoms: _411  and  _412
REMARK                            x       y       z     vdW  Elec       q    Type
REMARK                         _______ _______ _______ _____ _____    ______ ____
ROOT
ATOM      1  O   HOH     1      25.375  68.701  10.062  0.00  0.00    +0.000 OA
ENDROOT
TORSDOF 0
REMARK  Name = ../refined-set-2016/1ps3/1ps3_pocket.pdb
REMARK  153 active torsions:
REMARK  status: ('A' for Active; 'I' for Inactive)
REMARK    1  A    between atoms: _1  and  _3
REMARK    2  A    between atoms: _14  and  _17
REMARK    3  A    between atoms: _17  and  _18
REMARK    4  A    between atoms: _25  and  _26
REMARK    5  A    between atoms: _33  and  _34
REMARK    6  A    between atoms: _39  and  _41
REMARK    7  A    between atoms: _41  and  _42
REMARK    8  A    between atoms: _44  and  _46
REMARK    9  A    between atoms: _46  and  _47
REMARK   10  A    between atoms: _46  and  _49
REMARK   11  A    between atoms: _49  and  _50
REMARK   12  A    between atoms: _60  and  _62
REMARK   13  A    between atoms: _62  and  _63
REMARK   14  A    between atoms: _62  and  _65
REMARK   15  A    between atoms: _65  and  _66
REMARK   16  A    between atoms: _69  and  _71
REMARK   17  A    between atoms: _71  and  _72
REMARK   18  A    between atoms: _71  and  _74
REMARK   19  A    between atoms: _74  and  _75
REMARK   20  A    between atoms: _80  and  _81
REMARK   21  A    between atoms: _83  and  _85
REMARK   22  A    between atoms: _85  and  _86
REMARK   23  A    between atoms: _85  and  _88
REMARK   24  A    between atoms: _88  and  _89
REMARK   25  A    between atoms: _89  and  _90
REMARK   26  A    between atoms: _93  and  _95
REMARK   27  A    between atoms: _95  and  _96
REMARK   28  A    between atoms: _95  and  _98
REMARK   29  A    between atoms: _98  and  _99
REMARK   30  A    between atoms: _99  and  _100
REMARK   31  A    between atoms: _102  and  _104
REMARK   32  A    between atoms: _104  and  _105
REMARK   33  A    between atoms: _104  and  _107
REMARK   34  A    between atoms: _107  and  _108
REMARK   35  A    between atoms: _111  and  _113
REMARK   36  A    between atoms: _113  and  _114
REMARK   37  A    between atoms: _113  and  _116
REMARK   38  A    between atoms: _116  and  _117
REMARK   39  A    between atoms: _117  and  _118
REMARK   40  A    between atoms: _118  and  ZN_414
REMARK   41  A    between atoms: _121  and  _122
REMARK   42  A    between atoms: _127  and  _129
REMARK   43  A    between atoms: _129  and  _130
REMARK   44  A    between atoms: _129  and  _132
REMARK   45  A    between atoms: _132  and  _133
REMARK   46  A    between atoms: _139  and  _141
REMARK   47  A    between atoms: _141  and  _142
REMARK   48  A    between atoms: _141  and  _144
REMARK   49  A    between atoms: _144  and  _145
REMARK   50  A    between atoms: _145  and  _146
REMARK   51  A    between atoms: _146  and  _147
REMARK   52  A    between atoms: _156  and  _158
REMARK   53  A    between atoms: _158  and  _159
REMARK   54  A    between atoms: _158  and  _161
REMARK   55  A    between atoms: _161  and  _162
REMARK   56  A    between atoms: _167  and  _168
REMARK   57  A    between atoms: _170  and  _172
REMARK   58  A    between atoms: _172  and  _173
REMARK   59  A    between atoms: _172  and  _175
REMARK   60  A    between atoms: _175  and  _176
REMARK   61  A    between atoms: _178  and  _180
REMARK   62  A    between atoms: _180  and  _181
REMARK   63  A    between atoms: _180  and  _183
REMARK   64  A    between atoms: _183  and  _184
REMARK   65  A    between atoms: _189  and  _190
REMARK   66  A    between atoms: _192  and  _194
REMARK   67  A    between atoms: _194  and  _195
REMARK   68  A    between atoms: _194  and  _197
REMARK   69  A    between atoms: _197  and  _198
REMARK   70  A    between atoms: _201  and  _203
REMARK   71  A    between atoms: _203  and  _204
REMARK   72  A    between atoms: _203  and  _206
REMARK   73  A    between atoms: _206  and  _207
REMARK   74  A    between atoms: _210  and  _212
REMARK   75  A    between atoms: _212  and  _213
REMARK   76  A    between atoms: _212  and  _215
REMARK   77  A    between atoms: _215  and  _216
REMARK   78  A    between atoms: _219  and  _221
REMARK   79  A    between atoms: _221  and  _222
REMARK   80  A    between atoms: _221  and  _224
REMARK   81  A    between atoms: _224  and  _225
REMARK   82  A    between atoms: _231  and  _233
REMARK   83  A    between atoms: _233  and  _234
REMARK   84  A    between atoms: _233  and  _236
REMARK   85  A    between atoms: _236  and  _237
REMARK   86  A    between atoms: _242  and  _243
REMARK   87  A    between atoms: _245  and  _247
REMARK   88  A    between atoms: _247  and  _248
REMARK   89  A    between atoms: _247  and  _250
REMARK   90  A    between atoms: _250  and  _251
REMARK   91  A    between atoms: _254  and  _256
REMARK   92  A    between atoms: _256  and  _257
REMARK   93  A    between atoms: _256  and  _259
REMARK   94  A    between atoms: _259  and  _260
REMARK   95  A    between atoms: _270  and  _272
REMARK   96  A    between atoms: _272  and  _273
REMARK   97  A    between atoms: _272  and  _275
REMARK   98  A    between atoms: _275  and  _276
REMARK   99  A    between atoms: _281  and  _283
REMARK  100  A    between atoms: _283  and  _284
REMARK  101  A    between atoms: _283  and  _286
REMARK  102  A    between atoms: _286  and  _287
REMARK  103  A    between atoms: _291  and  ZN_414
REMARK  104  A    between atoms: _292  and  _294
REMARK  105  A    between atoms: _294  and  _295
REMARK  106  A    between atoms: _294  and  _297
REMARK  107  A    between atoms: _297  and  _298
REMARK  108  A    between atoms: _301  and  _303
REMARK  109  A    between atoms: _303  and  _304
REMARK  110  A    between atoms: _306  and  _308
REMARK  111  A    between atoms: _308  and  _309
REMARK  112  A    between atoms: _308  and  _311
REMARK  113  A    between atoms: _311  and  _312
REMARK  114  A    between atoms: _315  and  _317
REMARK  115  A    between atoms: _317  and  _318
REMARK  116  A    between atoms: _317  and  _320
REMARK  117  A    between atoms: _320  and  _321
REMARK  118  A    between atoms: _324  and  _326
REMARK  119  A    between atoms: _326  and  _327
REMARK  120  A    between atoms: _330  and  _332
REMARK  121  A    between atoms: _332  and  _333
REMARK  122  A    between atoms: _336  and  _338
REMARK  123  A    between atoms: _338  and  _339
REMARK  124  A    between atoms: _338  and  _341
REMARK  125  A    between atoms: _341  and  _342
REMARK  126  A    between atoms: _347  and  _348
REMARK  127  A    between atoms: _350  and  _352
REMARK  128  A    between atoms: _352  and  _353
REMARK  129  A    between atoms: _352  and  _355
REMARK  130  A    between atoms: _355  and  _356
REMARK  131  A    between atoms: _359  and  _361
REMARK  132  A    between atoms: _361  and  _362
REMARK  133  A    between atoms: _361  and  _364
REMARK  134  A    between atoms: _364  and  _365
REMARK  135  A    between atoms: _368  and  _370
REMARK  136  A    between atoms: _370  and  _371
REMARK  137  A    between atoms: _370  and  _373
REMARK  138  A    between atoms: _373  and  _374
REMARK  139  A    between atoms: _374  and  _375
REMARK  140  A    between atoms: _378  and  _380
REMARK  141  A    between atoms: _380  and  _381
REMARK  142  A    between atoms: _380  and  _383
REMARK  143  A    between atoms: _383  and  _384
REMARK  144  A    between atoms: _384  and  _385
REMARK  145  A    between atoms: _385  and  _386
REMARK  146  A    between atoms: _395  and  _397
REMARK  147  A    between atoms: _397  and  _398
REMARK  148  A    between atoms: _400  and  _402
REMARK  149  A    between atoms: _402  and  _403
REMARK  150  A    between atoms: _402  and  _405
REMARK  151  A    between atoms: _405  and  _406
REMARK  152  A    between atoms: _409  and  _411
REMARK  153  A    between atoms: _411  and  _412
REMARK                            x       y       z     vdW  Elec       q    Type
REMARK                         _______ _______ _______ _____ _____    ______ ____
ROOT
ATOM      1  O   HOH     1      32.012  70.958  13.676  0.00  0.00    +0.000 OA
ENDROOT
TORSDOF 0
REMARK  Name = ../refined-set-2016/1ps3/1ps3_pocket.pdb
REMARK  153 active torsions:
REMARK  status: ('A' for Active; 'I' for Inactive)
REMARK    1  A    between atoms: _1  and  _3
REMARK    2  A    between atoms: _14  and  _17
REMARK    3  A    between atoms: _17  and  _18
REMARK    4  A    between atoms: _25  and  _26
REMARK    5  A    between atoms: _33  and  _34
REMARK    6  A    between atoms: _39  and  _41
REMARK    7  A    between atoms: _41  and  _42
REMARK    8  A    between atoms: _44  and  _46
REMARK    9  A    between atoms: _46  and  _47
REMARK   10  A    between atoms: _46  and  _49
REMARK   11  A    between atoms: _49  and  _50
REMARK   12  A    between atoms: _60  and  _62
REMARK   13  A    between atoms: _62  and  _63
REMARK   14  A    between atoms: _62  and  _65
REMARK   15  A    between atoms: _65  and  _66
REMARK   16  A    between atoms: _69  and  _71
REMARK   17  A    between atoms: _71  and  _72
REMARK   18  A    between atoms: _71  and  _74
REMARK   19  A    between atoms: _74  and  _75
REMARK   20  A    between atoms: _80  and  _81
REMARK   21  A    between atoms: _83  and  _85
REMARK   22  A    between atoms: _85  and  _86
REMARK   23  A    between atoms: _85  and  _88
REMARK   24  A    between atoms: _88  and  _89
REMARK   25  A    between atoms: _89  and  _90
REMARK   26  A    between atoms: _93  and  _95
REMARK   27  A    between atoms: _95  and  _96
REMARK   28  A    between atoms: _95  and  _98
REMARK   29  A    between atoms: _98  and  _99
REMARK   30  A    between atoms: _99  and  _100
REMARK   31  A    between atoms: _102  and  _104
REMARK   32  A    between atoms: _104  and  _105
REMARK   33  A    between atoms: _104  and  _107
REMARK   34  A    between atoms: _107  and  _108
REMARK   35  A    between atoms: _111  and  _113
REMARK   36  A    between atoms: _113  and  _114
REMARK   37  A    between atoms: _113  and  _116
REMARK   38  A    between atoms: _116  and  _117
REMARK   39  A    between atoms: _117  and  _118
REMARK   40  A    between atoms: _118  and  ZN_414
REMARK   41  A    between atoms: _121  and  _122
REMARK   42  A    between atoms: _127  and  _129
REMARK   43  A    between atoms: _129  and  _130
REMARK   44  A    between atoms: _129  and  _132
REMARK   45  A    between atoms: _132  and  _133
REMARK   46  A    between atoms: _139  and  _141
REMARK   47  A    between atoms: _141  and  _142
REMARK   48  A    between atoms: _141  and  _144
REMARK   49  A    between atoms: _144  and  _145
REMARK   50  A    between atoms: _145  and  _146
REMARK   51  A    between atoms: _146  and  _147
REMARK   52  A    between atoms: _156  and  _158
REMARK   53  A    between atoms: _158  and  _159
REMARK   54  A    between atoms: _158  and  _161
REMARK   55  A    between atoms: _161  and  _162
REMARK   56  A    between atoms: _167  and  _168
REMARK   57  A    between atoms: _170  and  _172
REMARK   58  A    between atoms: _172  and  _173
REMARK   59  A    between atoms: _172  and  _175
REMARK   60  A    between atoms: _175  and  _176
REMARK   61  A    between atoms: _178  and  _180
REMARK   62  A    between atoms: _180  and  _181
REMARK   63  A    between atoms: _180  and  _183
REMARK   64  A    between atoms: _183  and  _184
REMARK   65  A    between atoms: _189  and  _190
REMARK   66  A    between atoms: _192  and  _194
REMARK   67  A    between atoms: _194  and  _195
REMARK   68  A    between atoms: _194  and  _197
REMARK   69  A    between atoms: _197  and  _198
REMARK   70  A    between atoms: _201  and  _203
REMARK   71  A    between atoms: _203  and  _204
REMARK   72  A    between atoms: _203  and  _206
REMARK   73  A    between atoms: _206  and  _207
REMARK   74  A    between atoms: _210  and  _212
REMARK   75  A    between atoms: _212  and  _213
REMARK   76  A    between atoms: _212  and  _215
REMARK   77  A    between atoms: _215  and  _216
REMARK   78  A    between atoms: _219  and  _221
REMARK   79  A    between atoms: _221  and  _222
REMARK   80  A    between atoms: _221  and  _224
REMARK   81  A    between atoms: _224  and  _225
REMARK   82  A    between atoms: _231  and  _233
REMARK   83  A    between atoms: _233  and  _234
REMARK   84  A    between atoms: _233  and  _236
REMARK   85  A    between atoms: _236  and  _237
REMARK   86  A    between atoms: _242  and  _243
REMARK   87  A    between atoms: _245  and  _247
REMARK   88  A    between atoms: _247  and  _248
REMARK   89  A    between atoms: _247  and  _250
REMARK   90  A    between atoms: _250  and  _251
REMARK   91  A    between atoms: _254  and  _256
REMARK   92  A    between atoms: _256  and  _257
REMARK   93  A    between atoms: _256  and  _259
REMARK   94  A    between atoms: _259  and  _260
REMARK   95  A    between atoms: _270  and  _272
REMARK   96  A    between atoms: _272  and  _273
REMARK   97  A    between atoms: _272  and  _275
REMARK   98  A    between atoms: _275  and  _276
REMARK   99  A    between atoms: _281  and  _283
REMARK  100  A    between atoms: _283  and  _284
REMARK  101  A    between atoms: _283  and  _286
REMARK  102  A    between atoms: _286  and  _287
REMARK  103  A    between atoms: _291  and  ZN_414
REMARK  104  A    between atoms: _292  and  _294
REMARK  105  A    between atoms: _294  and  _295
REMARK  106  A    between atoms: _294  and  _297
REMARK  107  A    between atoms: _297  and  _298
REMARK  108  A    between atoms: _301  and  _303
REMARK  109  A    between atoms: _303  and  _304
REMARK  110  A    between atoms: _306  and  _308
REMARK  111  A    between atoms: _308  and  _309
REMARK  112  A    between atoms: _308  and  _311
REMARK  113  A    between atoms: _311  and  _312
REMARK  114  A    between atoms: _315  and  _317
REMARK  115  A    between atoms: _317  and  _318
REMARK  116  A    between atoms: _317  and  _320
REMARK  117  A    between atoms: _320  and  _321
REMARK  118  A    between atoms: _324  and  _326
REMARK  119  A    between atoms: _326  and  _327
REMARK  120  A    between atoms: _330  and  _332
REMARK  121  A    between atoms: _332  and  _333
REMARK  122  A    between atoms: _336  and  _338
REMARK  123  A    between atoms: _338  and  _339
REMARK  124  A    between atoms: _338  and  _341
REMARK  125  A    between atoms: _341  and  _342
REMARK  126  A    between atoms: _347  and  _348
REMARK  127  A    between atoms: _350  and  _352
REMARK  128  A    between atoms: _352  and  _353
REMARK  129  A    between atoms: _352  and  _355
REMARK  130  A    between atoms: _355  and  _356
REMARK  131  A    between atoms: _359  and  _361
REMARK  132  A    between atoms: _361  and  _362
REMARK  133  A    between atoms: _361  and  _364
REMARK  134  A    between atoms: _364  and  _365
REMARK  135  A    between atoms: _368  and  _370
REMARK  136  A    between atoms: _370  and  _371
REMARK  137  A    between atoms: _370  and  _373
REMARK  138  A    between atoms: _373  and  _374
REMARK  139  A    between atoms: _374  and  _375
REMARK  140  A    between atoms: _378  and  _380
REMARK  141  A    between atoms: _380  and  _381
REMARK  142  A    between atoms: _380  and  _383
REMARK  143  A    between atoms: _383  and  _384
REMARK  144  A    between atoms: _384  and  _385
REMARK  145  A    between atoms: _385  and  _386
REMARK  146  A    between atoms: _395  and  _397
REMARK  147  A    between atoms: _397  and  _398
REMARK  148  A    between atoms: _400  and  _402
REMARK  149  A    between atoms: _402  and  _403
REMARK  150  A    between atoms: _402  and  _405
REMARK  151  A    between atoms: _405  and  _406
REMARK  152  A    between atoms: _409  and  _411
REMARK  153  A    between atoms: _411  and  _412
REMARK                            x       y       z     vdW  Elec       q    Type
REMARK                         _______ _______ _______ _____ _____    ______ ____
ROOT
ATOM      1  O   HOH     1      25.766  66.047  17.507  0.00  0.00    +0.000 OA
ENDROOT
TORSDOF 0
