REMARK  Name = ../refined-set-2016/2xei/2xei_pocket.pdb
REMARK  357 active torsions:
REMARK  status: ('A' for Active; 'I' for Inactive)
REMARK    1  A    between atoms: _1  and  _3
REMARK    2  A    between atoms: _3  and  _4
REMARK    3  A    between atoms: _7  and  _9
REMARK    4  A    between atoms: _9  and  _10
REMARK    5  A    between atoms: _9  and  _12
REMARK    6  A    between atoms: _12  and  _13
REMARK    7  A    between atoms: _19  and  _21
REMARK    8  A    between atoms: _21  and  _22
REMARK    9  A    between atoms: _24  and  _26
REMARK   10  A    between atoms: _26  and  _27
REMARK   11  A    between atoms: _26  and  _29
REMARK   12  A    between atoms: _29  and  _30
REMARK   13  A    between atoms: _30  and  _31
REMARK   14  A    between atoms: _31  and  _32
REMARK   15  A    between atoms: _32  and  _33
REMARK   16  A    between atoms: _37  and  _39
REMARK   17  A    between atoms: _39  and  _40
REMARK   18  A    between atoms: _39  and  _42
REMARK   19  A    between atoms: _45  and  _47
REMARK   20  A    between atoms: _47  and  _48
REMARK   21  A    between atoms: _47  and  _50
REMARK   22  A    between atoms: _50  and  _51
REMARK   23  A    between atoms: _57  and  _59
REMARK   24  A    between atoms: _59  and  _60
REMARK   25  A    between atoms: _59  and  _62
REMARK   26  A    between atoms: _62  and  _63
REMARK   27  A    between atoms: _63  and  _64
REMARK   28  A    between atoms: _64  and  _65
REMARK   29  A    between atoms: _74  and  _76
REMARK   30  A    between atoms: _76  and  _77
REMARK   31  A    between atoms: _79  and  _81
REMARK   32  A    between atoms: _81  and  _82
REMARK   33  A    between atoms: _81  and  _84
REMARK   34  A    between atoms: _84  and  _85
REMARK   35  A    between atoms: _90  and  _91
REMARK   36  A    between atoms: _93  and  _95
REMARK   37  A    between atoms: _95  and  _96
REMARK   38  A    between atoms: _95  and  _98
REMARK   39  A    between atoms: _98  and  _99
REMARK   40  A    between atoms: _99  and  _100
REMARK   41  A    between atoms: _105  and  _107
REMARK   42  A    between atoms: _107  and  _108
REMARK   43  A    between atoms: _107  and  _110
REMARK   44  A    between atoms: _110  and  _111
REMARK   45  A    between atoms: _111  and  _112
REMARK   46  A    between atoms: _112  and  _113
REMARK   47  A    between atoms: _122  and  _124
REMARK   48  A    between atoms: _124  and  _125
REMARK   49  A    between atoms: _127  and  _129
REMARK   50  A    between atoms: _129  and  _130
REMARK   51  A    between atoms: _129  and  _132
REMARK   52  A    between atoms: _132  and  _133
REMARK   53  A    between atoms: _138  and  _140
REMARK   54  A    between atoms: _140  and  _141
REMARK   55  A    between atoms: _140  and  _143
REMARK   56  A    between atoms: _143  and  _144
REMARK   57  A    between atoms: _147  and  _149
REMARK   58  A    between atoms: _149  and  _150
REMARK   59  A    between atoms: _149  and  _152
REMARK   60  A    between atoms: _152  and  _153
REMARK   61  A    between atoms: _156  and  _158
REMARK   62  A    between atoms: _158  and  _159
REMARK   63  A    between atoms: _158  and  _161
REMARK   64  A    between atoms: _161  and  _162
REMARK   65  A    between atoms: _167  and  _169
REMARK   66  A    between atoms: _169  and  _170
REMARK   67  A    between atoms: _169  and  _172
REMARK   68  A    between atoms: _172  and  _173
REMARK   69  A    between atoms: _176  and  _178
REMARK   70  A    between atoms: _178  and  _179
REMARK   71  A    between atoms: _178  and  _181
REMARK   72  A    between atoms: _181  and  _182
REMARK   73  A    between atoms: _187  and  _189
REMARK   74  A    between atoms: _189  and  _190
REMARK   75  A    between atoms: _192  and  _194
REMARK   76  A    between atoms: _194  and  _195
REMARK   77  A    between atoms: _194  and  _197
REMARK   78  A    between atoms: _197  and  _198
REMARK   79  A    between atoms: _202  and  ZN_877
REMARK   80  A    between atoms: _203  and  _205
REMARK   81  A    between atoms: _205  and  _206
REMARK   82  A    between atoms: _205  and  _208
REMARK   83  A    between atoms: _208  and  _209
REMARK   84  A    between atoms: _212  and  _214
REMARK   85  A    between atoms: _214  and  _215
REMARK   86  A    between atoms: _214  and  _217
REMARK   87  A    between atoms: _217  and  _218
REMARK   88  A    between atoms: _228  and  _230
REMARK   89  A    between atoms: _230  and  _231
REMARK   90  A    between atoms: _230  and  _233
REMARK   91  A    between atoms: _233  and  _234
REMARK   92  A    between atoms: _237  and  _239
REMARK   93  A    between atoms: _239  and  _240
REMARK   94  A    between atoms: _239  and  _242
REMARK   95  A    between atoms: _242  and  _243
REMARK   96  A    between atoms: _243  and  _244
REMARK   97  A    between atoms: _243  and  _245
REMARK   98  A    between atoms: _244  and  ZN_877
REMARK   99  A    between atoms: _245  and  ZN_876
REMARK  100  A    between atoms: _247  and  _248
REMARK  101  A    between atoms: _253  and  _255
REMARK  102  A    between atoms: _255  and  _256
REMARK  103  A    between atoms: _259  and  _261
REMARK  104  A    between atoms: _261  and  _262
REMARK  105  A    between atoms: _261  and  _264
REMARK  106  A    between atoms: _264  and  _265
REMARK  107  A    between atoms: _265  and  _266
REMARK  108  A    between atoms: _269  and  _271
REMARK  109  A    between atoms: _271  and  _272
REMARK  110  A    between atoms: _271  and  _274
REMARK  111  A    between atoms: _274  and  _275
REMARK  112  A    between atoms: _275  and  _276
REMARK  113  A    between atoms: _276  and  _278
REMARK  114  A    between atoms: _278  and  ZN_876
REMARK  115  A    between atoms: _279  and  _281
REMARK  116  A    between atoms: _281  and  _282
REMARK  117  A    between atoms: _281  and  _284
REMARK  118  A    between atoms: _284  and  _285
REMARK  119  A    between atoms: _291  and  _293
REMARK  120  A    between atoms: _293  and  _294
REMARK  121  A    between atoms: _296  and  _298
REMARK  122  A    between atoms: _298  and  _299
REMARK  123  A    between atoms: _298  and  _301
REMARK  124  A    between atoms: _301  and  _302
REMARK  125  A    between atoms: _305  and  _307
REMARK  126  A    between atoms: _307  and  _308
REMARK  127  A    between atoms: _307  and  _310
REMARK  128  A    between atoms: _310  and  _311
REMARK  129  A    between atoms: _314  and  _316
REMARK  130  A    between atoms: _316  and  _317
REMARK  131  A    between atoms: _316  and  _319
REMARK  132  A    between atoms: _319  and  _320
REMARK  133  A    between atoms: _325  and  _327
REMARK  134  A    between atoms: _327  and  _328
REMARK  135  A    between atoms: _327  and  _330
REMARK  136  A    between atoms: _330  and  _331
REMARK  137  A    between atoms: _331  and  _333
REMARK  138  A    between atoms: _333  and  ZN_877
REMARK  139  A    between atoms: _334  and  _336
REMARK  140  A    between atoms: _336  and  _337
REMARK  141  A    between atoms: _336  and  _339
REMARK  142  A    between atoms: _339  and  _340
REMARK  143  A    between atoms: _342  and  _344
REMARK  144  A    between atoms: _344  and  _345
REMARK  145  A    between atoms: _344  and  _347
REMARK  146  A    between atoms: _347  and  _348
REMARK  147  A    between atoms: _350  and  _352
REMARK  148  A    between atoms: _352  and  _353
REMARK  149  A    between atoms: _352  and  _355
REMARK  150  A    between atoms: _355  and  _356
REMARK  151  A    between atoms: _359  and  _361
REMARK  152  A    between atoms: _361  and  _362
REMARK  153  A    between atoms: _361  and  _364
REMARK  154  A    between atoms: _364  and  _365
REMARK  155  A    between atoms: _365  and  _366
REMARK  156  A    between atoms: _369  and  _371
REMARK  157  A    between atoms: _371  and  _372
REMARK  158  A    between atoms: _371  and  _374
REMARK  159  A    between atoms: _374  and  _375
REMARK  160  A    between atoms: _380  and  _381
REMARK  161  A    between atoms: _383  and  _385
REMARK  162  A    between atoms: _385  and  _386
REMARK  163  A    between atoms: _385  and  _388
REMARK  164  A    between atoms: _388  and  _389
REMARK  165  A    between atoms: _392  and  _394
REMARK  166  A    between atoms: _394  and  _395
REMARK  167  A    between atoms: _394  and  _397
REMARK  168  A    between atoms: _397  and  _398
REMARK  169  A    between atoms: _401  and  _403
REMARK  170  A    between atoms: _403  and  _404
REMARK  171  A    between atoms: _403  and  _406
REMARK  172  A    between atoms: _406  and  _407
REMARK  173  A    between atoms: _407  and  _408
REMARK  174  A    between atoms: _408  and  _409
REMARK  175  A    between atoms: _418  and  _420
REMARK  176  A    between atoms: _420  and  _421
REMARK  177  A    between atoms: _420  and  _423
REMARK  178  A    between atoms: _426  and  _428
REMARK  179  A    between atoms: _428  and  _429
REMARK  180  A    between atoms: _428  and  _431
REMARK  181  A    between atoms: _431  and  _432
REMARK  182  A    between atoms: _435  and  _437
REMARK  183  A    between atoms: _437  and  _438
REMARK  184  A    between atoms: _437  and  _440
REMARK  185  A    between atoms: _440  and  _441
REMARK  186  A    between atoms: _451  and  _453
REMARK  187  A    between atoms: _453  and  _454
REMARK  188  A    between atoms: _453  and  _456
REMARK  189  A    between atoms: _456  and  _457
REMARK  190  A    between atoms: _457  and  _458
REMARK  191  A    between atoms: _458  and  _459
REMARK  192  A    between atoms: _459  and  _460
REMARK  193  A    between atoms: _464  and  _466
REMARK  194  A    between atoms: _466  and  _467
REMARK  195  A    between atoms: _466  and  _469
REMARK  196  A    between atoms: _469  and  _470
REMARK  197  A    between atoms: _473  and  _474
REMARK  198  A    between atoms: _479  and  _481
REMARK  199  A    between atoms: _481  and  _482
REMARK  200  A    between atoms: _481  and  _484
REMARK  201  A    between atoms: _484  and  _485
REMARK  202  A    between atoms: _485  and  _486
REMARK  203  A    between atoms: _486  and  _487
REMARK  204  A    between atoms: _496  and  _498
REMARK  205  A    between atoms: _498  and  _499
REMARK  206  A    between atoms: _498  and  _501
REMARK  207  A    between atoms: _501  and  _502
REMARK  208  A    between atoms: _505  and  _507
REMARK  209  A    between atoms: _507  and  _508
REMARK  210  A    between atoms: _507  and  _510
REMARK  211  A    between atoms: _510  and  _511
REMARK  212  A    between atoms: _513  and  _515
REMARK  213  A    between atoms: _515  and  _516
REMARK  214  A    between atoms: _515  and  _518
REMARK  215  A    between atoms: _518  and  _519
REMARK  216  A    between atoms: _519  and  _520
REMARK  217  A    between atoms: _520  and  _521
REMARK  218  A    between atoms: _521  and  _522
REMARK  219  A    between atoms: _526  and  _528
REMARK  220  A    between atoms: _528  and  _529
REMARK  221  A    between atoms: _528  and  _531
REMARK  222  A    between atoms: _531  and  _532
REMARK  223  A    between atoms: _535  and  _537
REMARK  224  A    between atoms: _537  and  _538
REMARK  225  A    between atoms: _540  and  _542
REMARK  226  A    between atoms: _542  and  _543
REMARK  227  A    between atoms: _542  and  _545
REMARK  228  A    between atoms: _545  and  _546
REMARK  229  A    between atoms: _548  and  _550
REMARK  230  A    between atoms: _550  and  _551
REMARK  231  A    between atoms: _553  and  _555
REMARK  232  A    between atoms: _555  and  _556
REMARK  233  A    between atoms: _555  and  _558
REMARK  234  A    between atoms: _558  and  _559
REMARK  235  A    between atoms: _564  and  _566
REMARK  236  A    between atoms: _566  and  _567
REMARK  237  A    between atoms: _566  and  _569
REMARK  238  A    between atoms: _569  and  _570
REMARK  239  A    between atoms: _573  and  _575
REMARK  240  A    between atoms: _575  and  _576
REMARK  241  A    between atoms: _575  and  _578
REMARK  242  A    between atoms: _578  and  _579
REMARK  243  A    between atoms: _585  and  _587
REMARK  244  A    between atoms: _587  and  _588
REMARK  245  A    between atoms: _587  and  _590
REMARK  246  A    between atoms: _590  and  _591
REMARK  247  A    between atoms: _591  and  _592
REMARK  248  A    between atoms: _595  and  _597
REMARK  249  A    between atoms: _597  and  _598
REMARK  250  A    between atoms: _597  and  _600
REMARK  251  A    between atoms: _600  and  _601
REMARK  252  A    between atoms: _601  and  _602
REMARK  253  A    between atoms: _602  and  _603
REMARK  254  A    between atoms: _612  and  _614
REMARK  255  A    between atoms: _614  and  _615
REMARK  256  A    between atoms: _614  and  _617
REMARK  257  A    between atoms: _617  and  _618
REMARK  258  A    between atoms: _618  and  _619
REMARK  259  A    between atoms: _619  and  _620
REMARK  260  A    between atoms: _629  and  _631
REMARK  261  A    between atoms: _631  and  _632
REMARK  262  A    between atoms: _631  and  _634
REMARK  263  A    between atoms: _634  and  _635
REMARK  264  A    between atoms: _640  and  _641
REMARK  265  A    between atoms: _643  and  _645
REMARK  266  A    between atoms: _645  and  _646
REMARK  267  A    between atoms: _645  and  _648
REMARK  268  A    between atoms: _648  and  _649
REMARK  269  A    between atoms: _652  and  _654
REMARK  270  A    between atoms: _654  and  _655
REMARK  271  A    between atoms: _654  and  _657
REMARK  272  A    between atoms: _657  and  _658
REMARK  273  A    between atoms: _658  and  _659
REMARK  274  A    between atoms: _659  and  _660
REMARK  275  A    between atoms: _660  and  _661
REMARK  276  A    between atoms: _665  and  _667
REMARK  277  A    between atoms: _667  and  _668
REMARK  278  A    between atoms: _667  and  _670
REMARK  279  A    between atoms: _670  and  _671
REMARK  280  A    between atoms: _676  and  _678
REMARK  281  A    between atoms: _678  and  _679
REMARK  282  A    between atoms: _678  and  _681
REMARK  283  A    between atoms: _681  and  _682
REMARK  284  A    between atoms: _692  and  _694
REMARK  285  A    between atoms: _694  and  _695
REMARK  286  A    between atoms: _694  and  _697
REMARK  287  A    between atoms: _697  and  _698
REMARK  288  A    between atoms: _698  and  _699
REMARK  289  A    between atoms: _702  and  _704
REMARK  290  A    between atoms: _704  and  _705
REMARK  291  A    between atoms: _704  and  _707
REMARK  292  A    between atoms: _707  and  _708
REMARK  293  A    between atoms: _711  and  _713
REMARK  294  A    between atoms: _713  and  _714
REMARK  295  A    between atoms: _713  and  _716
REMARK  296  A    between atoms: _716  and  _717
REMARK  297  A    between atoms: _722  and  _724
REMARK  298  A    between atoms: _724  and  _725
REMARK  299  A    between atoms: _724  and  _727
REMARK  300  A    between atoms: _727  and  _728
REMARK  301  A    between atoms: _734  and  _736
REMARK  302  A    between atoms: _736  and  _737
REMARK  303  A    between atoms: _736  and  _739
REMARK  304  A    between atoms: _739  and  _740
REMARK  305  A    between atoms: _742  and  _744
REMARK  306  A    between atoms: _744  and  _745
REMARK  307  A    between atoms: _747  and  _749
REMARK  308  A    between atoms: _749  and  _750
REMARK  309  A    between atoms: _749  and  _752
REMARK  310  A    between atoms: _752  and  _753
REMARK  311  A    between atoms: _758  and  _759
REMARK  312  A    between atoms: _761  and  _763
REMARK  313  A    between atoms: _763  and  _764
REMARK  314  A    between atoms: _763  and  _766
REMARK  315  A    between atoms: _766  and  _767
REMARK  316  A    between atoms: _772  and  _773
REMARK  317  A    between atoms: _775  and  _777
REMARK  318  A    between atoms: _777  and  _778
REMARK  319  A    between atoms: _777  and  _780
REMARK  320  A    between atoms: _780  and  _781
REMARK  321  A    between atoms: _785  and  ZN_876
REMARK  322  A    between atoms: _786  and  _788
REMARK  323  A    between atoms: _788  and  _789
REMARK  324  A    between atoms: _788  and  _791
REMARK  325  A    between atoms: _791  and  _792
REMARK  326  A    between atoms: _792  and  _793
REMARK  327  A    between atoms: _796  and  _798
REMARK  328  A    between atoms: _798  and  _799
REMARK  329  A    between atoms: _798  and  _801
REMARK  330  A    between atoms: _801  and  _802
REMARK  331  A    between atoms: _802  and  _803
REMARK  332  A    between atoms: _803  and  _804
REMARK  333  A    between atoms: _813  and  _815
REMARK  334  A    between atoms: _815  and  _816
REMARK  335  A    between atoms: _815  and  _818
REMARK  336  A    between atoms: _818  and  _819
REMARK  337  A    between atoms: _824  and  _825
REMARK  338  A    between atoms: _827  and  _829
REMARK  339  A    between atoms: _829  and  _830
REMARK  340  A    between atoms: _829  and  _832
REMARK  341  A    between atoms: _832  and  _833
REMARK  342  A    between atoms: _838  and  _840
REMARK  343  A    between atoms: _840  and  _841
REMARK  344  A    between atoms: _840  and  _843
REMARK  345  A    between atoms: _843  and  _844
REMARK  346  A    between atoms: _844  and  _845
REMARK  347  A    between atoms: _845  and  _846
REMARK  348  A    between atoms: _846  and  _847
REMARK  349  A    between atoms: _851  and  _853
REMARK  350  A    between atoms: _853  and  _854
REMARK  351  A    between atoms: _853  and  _856
REMARK  352  A    between atoms: _856  and  _857
REMARK  353  A    between atoms: _862  and  _863
REMARK  354  A    between atoms: _865  and  _867
REMARK  355  A    between atoms: _867  and  _868
REMARK  356  A    between atoms: _871  and  _873
REMARK  357  A    between atoms: _873  and  _874
REMARK                            x       y       z     vdW  Elec       q    Type
REMARK                         _______ _______ _______ _____ _____    ______ ____
ROOT
ATOM      1  CA  PHE A   2       8.878  41.503  30.643  0.00  0.00    +0.141 C 
ENDROOT
BRANCH   1   4
ATOM      2  C   ALA A   1      10.902  40.780  32.012  0.00  0.00    +0.238 C 
ATOM      3  O   ALA A   1      11.496  41.889  32.082  0.00  0.00    -0.274 OA
ATOM      4  N   PHE A   2       9.740  40.550  31.369  0.00  0.00    -0.298 N 
ATOM      5  H   PHE A   2       9.405  39.566  31.387  0.00  0.00    +0.150 HD
BRANCH   2   6
ATOM      6  CA  ALA A   1      11.469  39.543  32.694  0.00  0.00    +0.145 C 
ATOM      7  CB  ALA A   1      11.227  39.628  34.212  0.00  0.00    +0.028 C 
BRANCH   6   8
ATOM      8  N   ALA A   1      12.912  39.428  32.416  0.00  0.00    -0.238 NA
ATOM      9  H   ALA A   1      13.609  39.497  33.185  0.00  0.00    +0.142 HD
ENDBRANCH   6   8
ENDBRANCH   2   6
ENDBRANCH   1   4
BRANCH   1  10
ATOM     10  C   PHE A   2       9.340  41.737  29.205  0.00  0.00    +0.227 C 
ATOM     11  O   PHE A   2       8.721  42.541  28.486  0.00  0.00    -0.286 OA
ENDBRANCH   1  10
BRANCH   1  12
ATOM     12  CB  PHE A   2       8.642  42.805  31.355  0.00  0.00    +0.054 C 
BRANCH  12  13
ATOM     13  CG  PHE A   2       7.999  42.616  32.726  0.00  0.00    -0.020 A 
ATOM     14  CD2 PHE A   2       8.813  42.610  33.892  0.00  0.00    -0.004 A 
ATOM     15  CE2 PHE A   2       8.247  42.447  35.142  0.00  0.00    -0.000 A 
ATOM     16  CZ  PHE A   2       6.779  42.288  35.245  0.00  0.00    -0.000 A 
ATOM     17  CE1 PHE A   2       6.006  42.297  34.107  0.00  0.00    -0.000 A 
ATOM     18  CD1 PHE A   2       6.582  42.433  32.848  0.00  0.00    -0.004 A 
ENDBRANCH  12  13
ENDBRANCH   1  12
TORSDOF 6
REMARK  Name = ../refined-set-2016/2xei/2xei_pocket.pdb
REMARK  357 active torsions:
REMARK  status: ('A' for Active; 'I' for Inactive)
REMARK    1  A    between atoms: _1  and  _3
REMARK    2  A    between atoms: _3  and  _4
REMARK    3  A    between atoms: _7  and  _9
REMARK    4  A    between atoms: _9  and  _10
REMARK    5  A    between atoms: _9  and  _12
REMARK    6  A    between atoms: _12  and  _13
REMARK    7  A    between atoms: _19  and  _21
REMARK    8  A    between atoms: _21  and  _22
REMARK    9  A    between atoms: _24  and  _26
REMARK   10  A    between atoms: _26  and  _27
REMARK   11  A    between atoms: _26  and  _29
REMARK   12  A    between atoms: _29  and  _30
REMARK   13  A    between atoms: _30  and  _31
REMARK   14  A    between atoms: _31  and  _32
REMARK   15  A    between atoms: _32  and  _33
REMARK   16  A    between atoms: _37  and  _39
REMARK   17  A    between atoms: _39  and  _40
REMARK   18  A    between atoms: _39  and  _42
REMARK   19  A    between atoms: _45  and  _47
REMARK   20  A    between atoms: _47  and  _48
REMARK   21  A    between atoms: _47  and  _50
REMARK   22  A    between atoms: _50  and  _51
REMARK   23  A    between atoms: _57  and  _59
REMARK   24  A    between atoms: _59  and  _60
REMARK   25  A    between atoms: _59  and  _62
REMARK   26  A    between atoms: _62  and  _63
REMARK   27  A    between atoms: _63  and  _64
REMARK   28  A    between atoms: _64  and  _65
REMARK   29  A    between atoms: _74  and  _76
REMARK   30  A    between atoms: _76  and  _77
REMARK   31  A    between atoms: _79  and  _81
REMARK   32  A    between atoms: _81  and  _82
REMARK   33  A    between atoms: _81  and  _84
REMARK   34  A    between atoms: _84  and  _85
REMARK   35  A    between atoms: _90  and  _91
REMARK   36  A    between atoms: _93  and  _95
REMARK   37  A    between atoms: _95  and  _96
REMARK   38  A    between atoms: _95  and  _98
REMARK   39  A    between atoms: _98  and  _99
REMARK   40  A    between atoms: _99  and  _100
REMARK   41  A    between atoms: _105  and  _107
REMARK   42  A    between atoms: _107  and  _108
REMARK   43  A    between atoms: _107  and  _110
REMARK   44  A    between atoms: _110  and  _111
REMARK   45  A    between atoms: _111  and  _112
REMARK   46  A    between atoms: _112  and  _113
REMARK   47  A    between atoms: _122  and  _124
REMARK   48  A    between atoms: _124  and  _125
REMARK   49  A    between atoms: _127  and  _129
REMARK   50  A    between atoms: _129  and  _130
REMARK   51  A    between atoms: _129  and  _132
REMARK   52  A    between atoms: _132  and  _133
REMARK   53  A    between atoms: _138  and  _140
REMARK   54  A    between atoms: _140  and  _141
REMARK   55  A    between atoms: _140  and  _143
REMARK   56  A    between atoms: _143  and  _144
REMARK   57  A    between atoms: _147  and  _149
REMARK   58  A    between atoms: _149  and  _150
REMARK   59  A    between atoms: _149  and  _152
REMARK   60  A    between atoms: _152  and  _153
REMARK   61  A    between atoms: _156  and  _158
REMARK   62  A    between atoms: _158  and  _159
REMARK   63  A    between atoms: _158  and  _161
REMARK   64  A    between atoms: _161  and  _162
REMARK   65  A    between atoms: _167  and  _169
REMARK   66  A    between atoms: _169  and  _170
REMARK   67  A    between atoms: _169  and  _172
REMARK   68  A    between atoms: _172  and  _173
REMARK   69  A    between atoms: _176  and  _178
REMARK   70  A    between atoms: _178  and  _179
REMARK   71  A    between atoms: _178  and  _181
REMARK   72  A    between atoms: _181  and  _182
REMARK   73  A    between atoms: _187  and  _189
REMARK   74  A    between atoms: _189  and  _190
REMARK   75  A    between atoms: _192  and  _194
REMARK   76  A    between atoms: _194  and  _195
REMARK   77  A    between atoms: _194  and  _197
REMARK   78  A    between atoms: _197  and  _198
REMARK   79  A    between atoms: _202  and  ZN_877
REMARK   80  A    between atoms: _203  and  _205
REMARK   81  A    between atoms: _205  and  _206
REMARK   82  A    between atoms: _205  and  _208
REMARK   83  A    between atoms: _208  and  _209
REMARK   84  A    between atoms: _212  and  _214
REMARK   85  A    between atoms: _214  and  _215
REMARK   86  A    between atoms: _214  and  _217
REMARK   87  A    between atoms: _217  and  _218
REMARK   88  A    between atoms: _228  and  _230
REMARK   89  A    between atoms: _230  and  _231
REMARK   90  A    between atoms: _230  and  _233
REMARK   91  A    between atoms: _233  and  _234
REMARK   92  A    between atoms: _237  and  _239
REMARK   93  A    between atoms: _239  and  _240
REMARK   94  A    between atoms: _239  and  _242
REMARK   95  A    between atoms: _242  and  _243
REMARK   96  A    between atoms: _243  and  _244
REMARK   97  A    between atoms: _243  and  _245
REMARK   98  A    between atoms: _244  and  ZN_877
REMARK   99  A    between atoms: _245  and  ZN_876
REMARK  100  A    between atoms: _247  and  _248
REMARK  101  A    between atoms: _253  and  _255
REMARK  102  A    between atoms: _255  and  _256
REMARK  103  A    between atoms: _259  and  _261
REMARK  104  A    between atoms: _261  and  _262
REMARK  105  A    between atoms: _261  and  _264
REMARK  106  A    between atoms: _264  and  _265
REMARK  107  A    between atoms: _265  and  _266
REMARK  108  A    between atoms: _269  and  _271
REMARK  109  A    between atoms: _271  and  _272
REMARK  110  A    between atoms: _271  and  _274
REMARK  111  A    between atoms: _274  and  _275
REMARK  112  A    between atoms: _275  and  _276
REMARK  113  A    between atoms: _276  and  _278
REMARK  114  A    between atoms: _278  and  ZN_876
REMARK  115  A    between atoms: _279  and  _281
REMARK  116  A    between atoms: _281  and  _282
REMARK  117  A    between atoms: _281  and  _284
REMARK  118  A    between atoms: _284  and  _285
REMARK  119  A    between atoms: _291  and  _293
REMARK  120  A    between atoms: _293  and  _294
REMARK  121  A    between atoms: _296  and  _298
REMARK  122  A    between atoms: _298  and  _299
REMARK  123  A    between atoms: _298  and  _301
REMARK  124  A    between atoms: _301  and  _302
REMARK  125  A    between atoms: _305  and  _307
REMARK  126  A    between atoms: _307  and  _308
REMARK  127  A    between atoms: _307  and  _310
REMARK  128  A    between atoms: _310  and  _311
REMARK  129  A    between atoms: _314  and  _316
REMARK  130  A    between atoms: _316  and  _317
REMARK  131  A    between atoms: _316  and  _319
REMARK  132  A    between atoms: _319  and  _320
REMARK  133  A    between atoms: _325  and  _327
REMARK  134  A    between atoms: _327  and  _328
REMARK  135  A    between atoms: _327  and  _330
REMARK  136  A    between atoms: _330  and  _331
REMARK  137  A    between atoms: _331  and  _333
REMARK  138  A    between atoms: _333  and  ZN_877
REMARK  139  A    between atoms: _334  and  _336
REMARK  140  A    between atoms: _336  and  _337
REMARK  141  A    between atoms: _336  and  _339
REMARK  142  A    between atoms: _339  and  _340
REMARK  143  A    between atoms: _342  and  _344
REMARK  144  A    between atoms: _344  and  _345
REMARK  145  A    between atoms: _344  and  _347
REMARK  146  A    between atoms: _347  and  _348
REMARK  147  A    between atoms: _350  and  _352
REMARK  148  A    between atoms: _352  and  _353
REMARK  149  A    between atoms: _352  and  _355
REMARK  150  A    between atoms: _355  and  _356
REMARK  151  A    between atoms: _359  and  _361
REMARK  152  A    between atoms: _361  and  _362
REMARK  153  A    between atoms: _361  and  _364
REMARK  154  A    between atoms: _364  and  _365
REMARK  155  A    between atoms: _365  and  _366
REMARK  156  A    between atoms: _369  and  _371
REMARK  157  A    between atoms: _371  and  _372
REMARK  158  A    between atoms: _371  and  _374
REMARK  159  A    between atoms: _374  and  _375
REMARK  160  A    between atoms: _380  and  _381
REMARK  161  A    between atoms: _383  and  _385
REMARK  162  A    between atoms: _385  and  _386
REMARK  163  A    between atoms: _385  and  _388
REMARK  164  A    between atoms: _388  and  _389
REMARK  165  A    between atoms: _392  and  _394
REMARK  166  A    between atoms: _394  and  _395
REMARK  167  A    between atoms: _394  and  _397
REMARK  168  A    between atoms: _397  and  _398
REMARK  169  A    between atoms: _401  and  _403
REMARK  170  A    between atoms: _403  and  _404
REMARK  171  A    between atoms: _403  and  _406
REMARK  172  A    between atoms: _406  and  _407
REMARK  173  A    between atoms: _407  and  _408
REMARK  174  A    between atoms: _408  and  _409
REMARK  175  A    between atoms: _418  and  _420
REMARK  176  A    between atoms: _420  and  _421
REMARK  177  A    between atoms: _420  and  _423
REMARK  178  A    between atoms: _426  and  _428
REMARK  179  A    between atoms: _428  and  _429
REMARK  180  A    between atoms: _428  and  _431
REMARK  181  A    between atoms: _431  and  _432
REMARK  182  A    between atoms: _435  and  _437
REMARK  183  A    between atoms: _437  and  _438
REMARK  184  A    between atoms: _437  and  _440
REMARK  185  A    between atoms: _440  and  _441
REMARK  186  A    between atoms: _451  and  _453
REMARK  187  A    between atoms: _453  and  _454
REMARK  188  A    between atoms: _453  and  _456
REMARK  189  A    between atoms: _456  and  _457
REMARK  190  A    between atoms: _457  and  _458
REMARK  191  A    between atoms: _458  and  _459
REMARK  192  A    between atoms: _459  and  _460
REMARK  193  A    between atoms: _464  and  _466
REMARK  194  A    between atoms: _466  and  _467
REMARK  195  A    between atoms: _466  and  _469
REMARK  196  A    between atoms: _469  and  _470
REMARK  197  A    between atoms: _473  and  _474
REMARK  198  A    between atoms: _479  and  _481
REMARK  199  A    between atoms: _481  and  _482
REMARK  200  A    between atoms: _481  and  _484
REMARK  201  A    between atoms: _484  and  _485
REMARK  202  A    between atoms: _485  and  _486
REMARK  203  A    between atoms: _486  and  _487
REMARK  204  A    between atoms: _496  and  _498
REMARK  205  A    between atoms: _498  and  _499
REMARK  206  A    between atoms: _498  and  _501
REMARK  207  A    between atoms: _501  and  _502
REMARK  208  A    between atoms: _505  and  _507
REMARK  209  A    between atoms: _507  and  _508
REMARK  210  A    between atoms: _507  and  _510
REMARK  211  A    between atoms: _510  and  _511
REMARK  212  A    between atoms: _513  and  _515
REMARK  213  A    between atoms: _515  and  _516
REMARK  214  A    between atoms: _515  and  _518
REMARK  215  A    between atoms: _518  and  _519
REMARK  216  A    between atoms: _519  and  _520
REMARK  217  A    between atoms: _520  and  _521
REMARK  218  A    between atoms: _521  and  _522
REMARK  219  A    between atoms: _526  and  _528
REMARK  220  A    between atoms: _528  and  _529
REMARK  221  A    between atoms: _528  and  _531
REMARK  222  A    between atoms: _531  and  _532
REMARK  223  A    between atoms: _535  and  _537
REMARK  224  A    between atoms: _537  and  _538
REMARK  225  A    between atoms: _540  and  _542
REMARK  226  A    between atoms: _542  and  _543
REMARK  227  A    between atoms: _542  and  _545
REMARK  228  A    between atoms: _545  and  _546
REMARK  229  A    between atoms: _548  and  _550
REMARK  230  A    between atoms: _550  and  _551
REMARK  231  A    between atoms: _553  and  _555
REMARK  232  A    between atoms: _555  and  _556
REMARK  233  A    between atoms: _555  and  _558
REMARK  234  A    between atoms: _558  and  _559
REMARK  235  A    between atoms: _564  and  _566
REMARK  236  A    between atoms: _566  and  _567
REMARK  237  A    between atoms: _566  and  _569
REMARK  238  A    between atoms: _569  and  _570
REMARK  239  A    between atoms: _573  and  _575
REMARK  240  A    between atoms: _575  and  _576
REMARK  241  A    between atoms: _575  and  _578
REMARK  242  A    between atoms: _578  and  _579
REMARK  243  A    between atoms: _585  and  _587
REMARK  244  A    between atoms: _587  and  _588
REMARK  245  A    between atoms: _587  and  _590
REMARK  246  A    between atoms: _590  and  _591
REMARK  247  A    between atoms: _591  and  _592
REMARK  248  A    between atoms: _595  and  _597
REMARK  249  A    between atoms: _597  and  _598
REMARK  250  A    between atoms: _597  and  _600
REMARK  251  A    between atoms: _600  and  _601
REMARK  252  A    between atoms: _601  and  _602
REMARK  253  A    between atoms: _602  and  _603
REMARK  254  A    between atoms: _612  and  _614
REMARK  255  A    between atoms: _614  and  _615
REMARK  256  A    between atoms: _614  and  _617
REMARK  257  A    between atoms: _617  and  _618
REMARK  258  A    between atoms: _618  and  _619
REMARK  259  A    between atoms: _619  and  _620
REMARK  260  A    between atoms: _629  and  _631
REMARK  261  A    between atoms: _631  and  _632
REMARK  262  A    between atoms: _631  and  _634
REMARK  263  A    between atoms: _634  and  _635
REMARK  264  A    between atoms: _640  and  _641
REMARK  265  A    between atoms: _643  and  _645
REMARK  266  A    between atoms: _645  and  _646
REMARK  267  A    between atoms: _645  and  _648
REMARK  268  A    between atoms: _648  and  _649
REMARK  269  A    between atoms: _652  and  _654
REMARK  270  A    between atoms: _654  and  _655
REMARK  271  A    between atoms: _654  and  _657
REMARK  272  A    between atoms: _657  and  _658
REMARK  273  A    between atoms: _658  and  _659
REMARK  274  A    between atoms: _659  and  _660
REMARK  275  A    between atoms: _660  and  _661
REMARK  276  A    between atoms: _665  and  _667
REMARK  277  A    between atoms: _667  and  _668
REMARK  278  A    between atoms: _667  and  _670
REMARK  279  A    between atoms: _670  and  _671
REMARK  280  A    between atoms: _676  and  _678
REMARK  281  A    between atoms: _678  and  _679
REMARK  282  A    between atoms: _678  and  _681
REMARK  283  A    between atoms: _681  and  _682
REMARK  284  A    between atoms: _692  and  _694
REMARK  285  A    between atoms: _694  and  _695
REMARK  286  A    between atoms: _694  and  _697
REMARK  287  A    between atoms: _697  and  _698
REMARK  288  A    between atoms: _698  and  _699
REMARK  289  A    between atoms: _702  and  _704
REMARK  290  A    between atoms: _704  and  _705
REMARK  291  A    between atoms: _704  and  _707
REMARK  292  A    between atoms: _707  and  _708
REMARK  293  A    between atoms: _711  and  _713
REMARK  294  A    between atoms: _713  and  _714
REMARK  295  A    between atoms: _713  and  _716
REMARK  296  A    between atoms: _716  and  _717
REMARK  297  A    between atoms: _722  and  _724
REMARK  298  A    between atoms: _724  and  _725
REMARK  299  A    between atoms: _724  and  _727
REMARK  300  A    between atoms: _727  and  _728
REMARK  301  A    between atoms: _734  and  _736
REMARK  302  A    between atoms: _736  and  _737
REMARK  303  A    between atoms: _736  and  _739
REMARK  304  A    between atoms: _739  and  _740
REMARK  305  A    between atoms: _742  and  _744
REMARK  306  A    between atoms: _744  and  _745
REMARK  307  A    between atoms: _747  and  _749
REMARK  308  A    between atoms: _749  and  _750
REMARK  309  A    between atoms: _749  and  _752
REMARK  310  A    between atoms: _752  and  _753
REMARK  311  A    between atoms: _758  and  _759
REMARK  312  A    between atoms: _761  and  _763
REMARK  313  A    between atoms: _763  and  _764
REMARK  314  A    between atoms: _763  and  _766
REMARK  315  A    between atoms: _766  and  _767
REMARK  316  A    between atoms: _772  and  _773
REMARK  317  A    between atoms: _775  and  _777
REMARK  318  A    between atoms: _777  and  _778
REMARK  319  A    between atoms: _777  and  _780
REMARK  320  A    between atoms: _780  and  _781
REMARK  321  A    between atoms: _785  and  ZN_876
REMARK  322  A    between atoms: _786  and  _788
REMARK  323  A    between atoms: _788  and  _789
REMARK  324  A    between atoms: _788  and  _791
REMARK  325  A    between atoms: _791  and  _792
REMARK  326  A    between atoms: _792  and  _793
REMARK  327  A    between atoms: _796  and  _798
REMARK  328  A    between atoms: _798  and  _799
REMARK  329  A    between atoms: _798  and  _801
REMARK  330  A    between atoms: _801  and  _802
REMARK  331  A    between atoms: _802  and  _803
REMARK  332  A    between atoms: _803  and  _804
REMARK  333  A    between atoms: _813  and  _815
REMARK  334  A    between atoms: _815  and  _816
REMARK  335  A    between atoms: _815  and  _818
REMARK  336  A    between atoms: _818  and  _819
REMARK  337  A    between atoms: _824  and  _825
REMARK  338  A    between atoms: _827  and  _829
REMARK  339  A    between atoms: _829  and  _830
REMARK  340  A    between atoms: _829  and  _832
REMARK  341  A    between atoms: _832  and  _833
REMARK  342  A    between atoms: _838  and  _840
REMARK  343  A    between atoms: _840  and  _841
REMARK  344  A    between atoms: _840  and  _843
REMARK  345  A    between atoms: _843  and  _844
REMARK  346  A    between atoms: _844  and  _845
REMARK  347  A    between atoms: _845  and  _846
REMARK  348  A    between atoms: _846  and  _847
REMARK  349  A    between atoms: _851  and  _853
REMARK  350  A    between atoms: _853  and  _854
REMARK  351  A    between atoms: _853  and  _856
REMARK  352  A    between atoms: _856  and  _857
REMARK  353  A    between atoms: _862  and  _863
REMARK  354  A    between atoms: _865  and  _867
REMARK  355  A    between atoms: _867  and  _868
REMARK  356  A    between atoms: _871  and  _873
REMARK  357  A    between atoms: _873  and  _874
REMARK                            x       y       z     vdW  Elec       q    Type
REMARK                         _______ _______ _______ _____ _____    ______ ____
ROOT
ATOM      1  CA  PHE A   4      20.510  49.252  35.725  0.00  0.00    +0.153 C 
ENDROOT
BRANCH   1   2
ATOM      2  C   PHE A   4      20.213  48.744  34.315  0.00  0.00    +0.241 C 
ATOM      3  N   ARG A   5      19.930  47.435  34.212  0.00  0.00    -0.297 N 
ATOM      4  H   ARG A   5      19.864  46.840  35.063  0.00  0.00    +0.150 HD
ATOM      5  O   PHE A   4      20.138  49.547  33.319  0.00  0.00    -0.273 OA
BRANCH   3   6
ATOM      6  CA  ARG A   5      19.709  46.839  32.839  0.00  0.00    +0.149 C 
BRANCH   6   7
ATOM      7  C   ARG A   5      18.499  47.430  32.092  0.00  0.00    +0.241 C 
ATOM      8  N   GLY A   6      17.489  47.913  32.822  0.00  0.00    -0.296 N 
ATOM      9  H   GLY A   6      17.532  47.846  33.859  0.00  0.00    +0.150 HD
ATOM     10  O   ARG A   5      18.524  47.485  30.869  0.00  0.00    -0.273 OA
BRANCH   8  11
ATOM     11  CA  GLY A   6      16.331  48.531  32.195  0.00  0.00    +0.163 C 
BRANCH  11  12
ATOM     12  C   GLY A   6      16.758  49.840  31.481  0.00  0.00    +0.229 C 
ATOM     13  O   GLY A   6      16.200  50.140  30.431  0.00  0.00    -0.286 OA
ENDBRANCH  11  12
ENDBRANCH   8  11
ENDBRANCH   6   7
BRANCH   6  14
ATOM     14  CB  ARG A   5      19.577  45.309  32.940  0.00  0.00    +0.033 C 
BRANCH  14  15
ATOM     15  CG  ARG A   5      18.322  44.888  33.754  0.00  0.00    +0.045 C 
BRANCH  15  16
ATOM     16  CD  ARG A   5      18.341  43.314  33.898  0.00  0.00    +0.174 C 
BRANCH  16  17
ATOM     17  NE  ARG A   5      19.173  42.902  35.056  0.00  0.00    -0.265 N 
ATOM     18  CZ  ARG A   5      18.768  43.116  36.311  0.00  0.00    +0.342 C 
ATOM     19  NH2 ARG A   5      19.509  42.722  37.346  0.00  0.00    -0.292 N 
ATOM     20 HH21 ARG A   5      19.180  42.896  38.317  0.00  0.00    +0.255 HD
ATOM     21 HH22 ARG A   5      20.416  42.241  37.183  0.00  0.00    +0.255 HD
ATOM     22  NH1 ARG A   5      17.596  43.727  36.526  0.00  0.00    -0.292 N 
ATOM     23 HH11 ARG A   5      17.270  43.899  37.498  0.00  0.00    +0.255 HD
ATOM     24 HH12 ARG A   5      17.012  44.029  35.721  0.00  0.00    +0.255 HD
ATOM     25  HE  ARG A   5      20.088  42.438  34.887  0.00  0.00    +0.259 HD
ENDBRANCH  16  17
ENDBRANCH  15  16
ENDBRANCH  14  15
ENDBRANCH   6  14
ENDBRANCH   3   6
ENDBRANCH   1   2
BRANCH   1  27
ATOM     26  C   VAL A   3      22.833  49.826  35.249  0.00  0.00    +0.241 C 
ATOM     27  N   PHE A   4      21.638  50.200  35.710  0.00  0.00    -0.297 N 
ATOM     28  H   PHE A   4      21.502  51.169  36.062  0.00  0.00    +0.150 HD
ATOM     29  O   VAL A   3      23.067  48.703  34.773  0.00  0.00    -0.273 OA
BRANCH  26  30
ATOM     30  CA  VAL A   3      23.895  50.907  35.238  0.00  0.00    +0.149 C 
BRANCH  30  33
ATOM     31  C   LYS A   2      26.276  50.765  35.799  0.00  0.00    +0.241 C 
ATOM     32  O   LYS A   2      26.182  51.672  36.653  0.00  0.00    -0.273 OA
ATOM     33  N   VAL A   3      25.232  50.293  35.101  0.00  0.00    -0.297 N 
ATOM     34  H   VAL A   3      25.365  49.487  34.457  0.00  0.00    +0.150 HD
BRANCH  31  35
ATOM     35  CA  LYS A   2      27.622  50.146  35.582  0.00  0.00    +0.149 C 
BRANCH  35  37
ATOM     36  C   GLY A   1      27.189  47.920  34.588  0.00  0.00    +0.240 C 
ATOM     37  N   LYS A   2      27.645  48.662  35.589  0.00  0.00    -0.297 N 
ATOM     38  H   LYS A   2      28.039  48.179  36.421  0.00  0.00    +0.150 HD
ATOM     39  O   GLY A   1      26.576  48.382  33.609  0.00  0.00    -0.274 OA
BRANCH  36  40
ATOM     40  CA  GLY A   1      27.395  46.411  34.726  0.00  0.00    +0.169 C 
BRANCH  40  41
ATOM     41  N   GLY A   1      26.495  45.680  33.803  0.00  0.00    -0.236 NA
ATOM     42  H   GLY A   1      25.467  45.827  33.867  0.00  0.00    +0.142 HD
ENDBRANCH  40  41
ENDBRANCH  36  40
ENDBRANCH  35  37
BRANCH  35  43
ATOM     43  CB  LYS A   2      28.178  50.781  34.306  0.00  0.00    +0.029 C 
BRANCH  43  44
ATOM     44  CG  LYS A   2      29.655  50.372  33.945  0.00  0.00    +0.000 C 
BRANCH  44  45
ATOM     45  CD  LYS A   2      30.604  50.726  35.017  0.00  0.00    -0.024 C 
BRANCH  45  46
ATOM     46  CE  LYS A   2      32.002  50.436  34.463  0.00  0.00    -0.086 C 
BRANCH  46  47
ATOM     47  NZ  LYS A   2      32.835  50.228  35.658  0.00  0.00    +0.380 N 
ATOM     48  HZ1 LYS A   2      32.820  51.087  36.244  0.00  0.00    -0.089 HD
ATOM     49  HZ2 LYS A   2      32.460  49.427  36.205  0.00  0.00    -0.089 HD
ATOM     50  HZ3 LYS A   2      33.812  50.023  35.367  0.00  0.00    -0.089 HD
ENDBRANCH  46  47
ENDBRANCH  45  46
ENDBRANCH  44  45
ENDBRANCH  43  44
ENDBRANCH  35  43
ENDBRANCH  31  35
ENDBRANCH  30  33
BRANCH  30  51
ATOM     51  CB  VAL A   3      23.582  51.958  34.091  0.00  0.00    +0.027 C 
ATOM     52  CG2 VAL A   3      24.653  53.100  34.086  0.00  0.00    +0.002 C 
ATOM     53  CG1 VAL A   3      23.500  51.316  32.699  0.00  0.00    +0.002 C 
ENDBRANCH  30  51
ENDBRANCH  26  30
ENDBRANCH   1  27
BRANCH   1  54
ATOM     54  CB  PHE A   4      19.293  50.012  36.271  0.00  0.00    +0.055 C 
BRANCH  54  55
ATOM     55  CG  PHE A   4      17.988  49.236  36.198  0.00  0.00    -0.020 A 
ATOM     56  CD2 PHE A   4      17.878  47.973  36.794  0.00  0.00    -0.004 A 
ATOM     57  CE2 PHE A   4      16.657  47.233  36.775  0.00  0.00    -0.000 A 
ATOM     58  CZ  PHE A   4      15.551  47.811  36.070  0.00  0.00    -0.000 A 
ATOM     59  CE1 PHE A   4      15.634  49.090  35.483  0.00  0.00    -0.000 A 
ATOM     60  CD1 PHE A   4      16.869  49.824  35.549  0.00  0.00    -0.004 A 
ENDBRANCH  54  55
ENDBRANCH   1  54
TORSDOF 24
REMARK  Name = ../refined-set-2016/2xei/2xei_pocket.pdb
REMARK  357 active torsions:
REMARK  status: ('A' for Active; 'I' for Inactive)
REMARK    1  A    between atoms: _1  and  _3
REMARK    2  A    between atoms: _3  and  _4
REMARK    3  A    between atoms: _7  and  _9
REMARK    4  A    between atoms: _9  and  _10
REMARK    5  A    between atoms: _9  and  _12
REMARK    6  A    between atoms: _12  and  _13
REMARK    7  A    between atoms: _19  and  _21
REMARK    8  A    between atoms: _21  and  _22
REMARK    9  A    between atoms: _24  and  _26
REMARK   10  A    between atoms: _26  and  _27
REMARK   11  A    between atoms: _26  and  _29
REMARK   12  A    between atoms: _29  and  _30
REMARK   13  A    between atoms: _30  and  _31
REMARK   14  A    between atoms: _31  and  _32
REMARK   15  A    between atoms: _32  and  _33
REMARK   16  A    between atoms: _37  and  _39
REMARK   17  A    between atoms: _39  and  _40
REMARK   18  A    between atoms: _39  and  _42
REMARK   19  A    between atoms: _45  and  _47
REMARK   20  A    between atoms: _47  and  _48
REMARK   21  A    between atoms: _47  and  _50
REMARK   22  A    between atoms: _50  and  _51
REMARK   23  A    between atoms: _57  and  _59
REMARK   24  A    between atoms: _59  and  _60
REMARK   25  A    between atoms: _59  and  _62
REMARK   26  A    between atoms: _62  and  _63
REMARK   27  A    between atoms: _63  and  _64
REMARK   28  A    between atoms: _64  and  _65
REMARK   29  A    between atoms: _74  and  _76
REMARK   30  A    between atoms: _76  and  _77
REMARK   31  A    between atoms: _79  and  _81
REMARK   32  A    between atoms: _81  and  _82
REMARK   33  A    between atoms: _81  and  _84
REMARK   34  A    between atoms: _84  and  _85
REMARK   35  A    between atoms: _90  and  _91
REMARK   36  A    between atoms: _93  and  _95
REMARK   37  A    between atoms: _95  and  _96
REMARK   38  A    between atoms: _95  and  _98
REMARK   39  A    between atoms: _98  and  _99
REMARK   40  A    between atoms: _99  and  _100
REMARK   41  A    between atoms: _105  and  _107
REMARK   42  A    between atoms: _107  and  _108
REMARK   43  A    between atoms: _107  and  _110
REMARK   44  A    between atoms: _110  and  _111
REMARK   45  A    between atoms: _111  and  _112
REMARK   46  A    between atoms: _112  and  _113
REMARK   47  A    between atoms: _122  and  _124
REMARK   48  A    between atoms: _124  and  _125
REMARK   49  A    between atoms: _127  and  _129
REMARK   50  A    between atoms: _129  and  _130
REMARK   51  A    between atoms: _129  and  _132
REMARK   52  A    between atoms: _132  and  _133
REMARK   53  A    between atoms: _138  and  _140
REMARK   54  A    between atoms: _140  and  _141
REMARK   55  A    between atoms: _140  and  _143
REMARK   56  A    between atoms: _143  and  _144
REMARK   57  A    between atoms: _147  and  _149
REMARK   58  A    between atoms: _149  and  _150
REMARK   59  A    between atoms: _149  and  _152
REMARK   60  A    between atoms: _152  and  _153
REMARK   61  A    between atoms: _156  and  _158
REMARK   62  A    between atoms: _158  and  _159
REMARK   63  A    between atoms: _158  and  _161
REMARK   64  A    between atoms: _161  and  _162
REMARK   65  A    between atoms: _167  and  _169
REMARK   66  A    between atoms: _169  and  _170
REMARK   67  A    between atoms: _169  and  _172
REMARK   68  A    between atoms: _172  and  _173
REMARK   69  A    between atoms: _176  and  _178
REMARK   70  A    between atoms: _178  and  _179
REMARK   71  A    between atoms: _178  and  _181
REMARK   72  A    between atoms: _181  and  _182
REMARK   73  A    between atoms: _187  and  _189
REMARK   74  A    between atoms: _189  and  _190
REMARK   75  A    between atoms: _192  and  _194
REMARK   76  A    between atoms: _194  and  _195
REMARK   77  A    between atoms: _194  and  _197
REMARK   78  A    between atoms: _197  and  _198
REMARK   79  A    between atoms: _202  and  ZN_877
REMARK   80  A    between atoms: _203  and  _205
REMARK   81  A    between atoms: _205  and  _206
REMARK   82  A    between atoms: _205  and  _208
REMARK   83  A    between atoms: _208  and  _209
REMARK   84  A    between atoms: _212  and  _214
REMARK   85  A    between atoms: _214  and  _215
REMARK   86  A    between atoms: _214  and  _217
REMARK   87  A    between atoms: _217  and  _218
REMARK   88  A    between atoms: _228  and  _230
REMARK   89  A    between atoms: _230  and  _231
REMARK   90  A    between atoms: _230  and  _233
REMARK   91  A    between atoms: _233  and  _234
REMARK   92  A    between atoms: _237  and  _239
REMARK   93  A    between atoms: _239  and  _240
REMARK   94  A    between atoms: _239  and  _242
REMARK   95  A    between atoms: _242  and  _243
REMARK   96  A    between atoms: _243  and  _244
REMARK   97  A    between atoms: _243  and  _245
REMARK   98  A    between atoms: _244  and  ZN_877
REMARK   99  A    between atoms: _245  and  ZN_876
REMARK  100  A    between atoms: _247  and  _248
REMARK  101  A    between atoms: _253  and  _255
REMARK  102  A    between atoms: _255  and  _256
REMARK  103  A    between atoms: _259  and  _261
REMARK  104  A    between atoms: _261  and  _262
REMARK  105  A    between atoms: _261  and  _264
REMARK  106  A    between atoms: _264  and  _265
REMARK  107  A    between atoms: _265  and  _266
REMARK  108  A    between atoms: _269  and  _271
REMARK  109  A    between atoms: _271  and  _272
REMARK  110  A    between atoms: _271  and  _274
REMARK  111  A    between atoms: _274  and  _275
REMARK  112  A    between atoms: _275  and  _276
REMARK  113  A    between atoms: _276  and  _278
REMARK  114  A    between atoms: _278  and  ZN_876
REMARK  115  A    between atoms: _279  and  _281
REMARK  116  A    between atoms: _281  and  _282
REMARK  117  A    between atoms: _281  and  _284
REMARK  118  A    between atoms: _284  and  _285
REMARK  119  A    between atoms: _291  and  _293
REMARK  120  A    between atoms: _293  and  _294
REMARK  121  A    between atoms: _296  and  _298
REMARK  122  A    between atoms: _298  and  _299
REMARK  123  A    between atoms: _298  and  _301
REMARK  124  A    between atoms: _301  and  _302
REMARK  125  A    between atoms: _305  and  _307
REMARK  126  A    between atoms: _307  and  _308
REMARK  127  A    between atoms: _307  and  _310
REMARK  128  A    between atoms: _310  and  _311
REMARK  129  A    between atoms: _314  and  _316
REMARK  130  A    between atoms: _316  and  _317
REMARK  131  A    between atoms: _316  and  _319
REMARK  132  A    between atoms: _319  and  _320
REMARK  133  A    between atoms: _325  and  _327
REMARK  134  A    between atoms: _327  and  _328
REMARK  135  A    between atoms: _327  and  _330
REMARK  136  A    between atoms: _330  and  _331
REMARK  137  A    between atoms: _331  and  _333
REMARK  138  A    between atoms: _333  and  ZN_877
REMARK  139  A    between atoms: _334  and  _336
REMARK  140  A    between atoms: _336  and  _337
REMARK  141  A    between atoms: _336  and  _339
REMARK  142  A    between atoms: _339  and  _340
REMARK  143  A    between atoms: _342  and  _344
REMARK  144  A    between atoms: _344  and  _345
REMARK  145  A    between atoms: _344  and  _347
REMARK  146  A    between atoms: _347  and  _348
REMARK  147  A    between atoms: _350  and  _352
REMARK  148  A    between atoms: _352  and  _353
REMARK  149  A    between atoms: _352  and  _355
REMARK  150  A    between atoms: _355  and  _356
REMARK  151  A    between atoms: _359  and  _361
REMARK  152  A    between atoms: _361  and  _362
REMARK  153  A    between atoms: _361  and  _364
REMARK  154  A    between atoms: _364  and  _365
REMARK  155  A    between atoms: _365  and  _366
REMARK  156  A    between atoms: _369  and  _371
REMARK  157  A    between atoms: _371  and  _372
REMARK  158  A    between atoms: _371  and  _374
REMARK  159  A    between atoms: _374  and  _375
REMARK  160  A    between atoms: _380  and  _381
REMARK  161  A    between atoms: _383  and  _385
REMARK  162  A    between atoms: _385  and  _386
REMARK  163  A    between atoms: _385  and  _388
REMARK  164  A    between atoms: _388  and  _389
REMARK  165  A    between atoms: _392  and  _394
REMARK  166  A    between atoms: _394  and  _395
REMARK  167  A    between atoms: _394  and  _397
REMARK  168  A    between atoms: _397  and  _398
REMARK  169  A    between atoms: _401  and  _403
REMARK  170  A    between atoms: _403  and  _404
REMARK  171  A    between atoms: _403  and  _406
REMARK  172  A    between atoms: _406  and  _407
REMARK  173  A    between atoms: _407  and  _408
REMARK  174  A    between atoms: _408  and  _409
REMARK  175  A    between atoms: _418  and  _420
REMARK  176  A    between atoms: _420  and  _421
REMARK  177  A    between atoms: _420  and  _423
REMARK  178  A    between atoms: _426  and  _428
REMARK  179  A    between atoms: _428  and  _429
REMARK  180  A    between atoms: _428  and  _431
REMARK  181  A    between atoms: _431  and  _432
REMARK  182  A    between atoms: _435  and  _437
REMARK  183  A    between atoms: _437  and  _438
REMARK  184  A    between atoms: _437  and  _440
REMARK  185  A    between atoms: _440  and  _441
REMARK  186  A    between atoms: _451  and  _453
REMARK  187  A    between atoms: _453  and  _454
REMARK  188  A    between atoms: _453  and  _456
REMARK  189  A    between atoms: _456  and  _457
REMARK  190  A    between atoms: _457  and  _458
REMARK  191  A    between atoms: _458  and  _459
REMARK  192  A    between atoms: _459  and  _460
REMARK  193  A    between atoms: _464  and  _466
REMARK  194  A    between atoms: _466  and  _467
REMARK  195  A    between atoms: _466  and  _469
REMARK  196  A    between atoms: _469  and  _470
REMARK  197  A    between atoms: _473  and  _474
REMARK  198  A    between atoms: _479  and  _481
REMARK  199  A    between atoms: _481  and  _482
REMARK  200  A    between atoms: _481  and  _484
REMARK  201  A    between atoms: _484  and  _485
REMARK  202  A    between atoms: _485  and  _486
REMARK  203  A    between atoms: _486  and  _487
REMARK  204  A    between atoms: _496  and  _498
REMARK  205  A    between atoms: _498  and  _499
REMARK  206  A    between atoms: _498  and  _501
REMARK  207  A    between atoms: _501  and  _502
REMARK  208  A    between atoms: _505  and  _507
REMARK  209  A    between atoms: _507  and  _508
REMARK  210  A    between atoms: _507  and  _510
REMARK  211  A    between atoms: _510  and  _511
REMARK  212  A    between atoms: _513  and  _515
REMARK  213  A    between atoms: _515  and  _516
REMARK  214  A    between atoms: _515  and  _518
REMARK  215  A    between atoms: _518  and  _519
REMARK  216  A    between atoms: _519  and  _520
REMARK  217  A    between atoms: _520  and  _521
REMARK  218  A    between atoms: _521  and  _522
REMARK  219  A    between atoms: _526  and  _528
REMARK  220  A    between atoms: _528  and  _529
REMARK  221  A    between atoms: _528  and  _531
REMARK  222  A    between atoms: _531  and  _532
REMARK  223  A    between atoms: _535  and  _537
REMARK  224  A    between atoms: _537  and  _538
REMARK  225  A    between atoms: _540  and  _542
REMARK  226  A    between atoms: _542  and  _543
REMARK  227  A    between atoms: _542  and  _545
REMARK  228  A    between atoms: _545  and  _546
REMARK  229  A    between atoms: _548  and  _550
REMARK  230  A    between atoms: _550  and  _551
REMARK  231  A    between atoms: _553  and  _555
REMARK  232  A    between atoms: _555  and  _556
REMARK  233  A    between atoms: _555  and  _558
REMARK  234  A    between atoms: _558  and  _559
REMARK  235  A    between atoms: _564  and  _566
REMARK  236  A    between atoms: _566  and  _567
REMARK  237  A    between atoms: _566  and  _569
REMARK  238  A    between atoms: _569  and  _570
REMARK  239  A    between atoms: _573  and  _575
REMARK  240  A    between atoms: _575  and  _576
REMARK  241  A    between atoms: _575  and  _578
REMARK  242  A    between atoms: _578  and  _579
REMARK  243  A    between atoms: _585  and  _587
REMARK  244  A    between atoms: _587  and  _588
REMARK  245  A    between atoms: _587  and  _590
REMARK  246  A    between atoms: _590  and  _591
REMARK  247  A    between atoms: _591  and  _592
REMARK  248  A    between atoms: _595  and  _597
REMARK  249  A    between atoms: _597  and  _598
REMARK  250  A    between atoms: _597  and  _600
REMARK  251  A    between atoms: _600  and  _601
REMARK  252  A    between atoms: _601  and  _602
REMARK  253  A    between atoms: _602  and  _603
REMARK  254  A    between atoms: _612  and  _614
REMARK  255  A    between atoms: _614  and  _615
REMARK  256  A    between atoms: _614  and  _617
REMARK  257  A    between atoms: _617  and  _618
REMARK  258  A    between atoms: _618  and  _619
REMARK  259  A    between atoms: _619  and  _620
REMARK  260  A    between atoms: _629  and  _631
REMARK  261  A    between atoms: _631  and  _632
REMARK  262  A    between atoms: _631  and  _634
REMARK  263  A    between atoms: _634  and  _635
REMARK  264  A    between atoms: _640  and  _641
REMARK  265  A    between atoms: _643  and  _645
REMARK  266  A    between atoms: _645  and  _646
REMARK  267  A    between atoms: _645  and  _648
REMARK  268  A    between atoms: _648  and  _649
REMARK  269  A    between atoms: _652  and  _654
REMARK  270  A    between atoms: _654  and  _655
REMARK  271  A    between atoms: _654  and  _657
REMARK  272  A    between atoms: _657  and  _658
REMARK  273  A    between atoms: _658  and  _659
REMARK  274  A    between atoms: _659  and  _660
REMARK  275  A    between atoms: _660  and  _661
REMARK  276  A    between atoms: _665  and  _667
REMARK  277  A    between atoms: _667  and  _668
REMARK  278  A    between atoms: _667  and  _670
REMARK  279  A    between atoms: _670  and  _671
REMARK  280  A    between atoms: _676  and  _678
REMARK  281  A    between atoms: _678  and  _679
REMARK  282  A    between atoms: _678  and  _681
REMARK  283  A    between atoms: _681  and  _682
REMARK  284  A    between atoms: _692  and  _694
REMARK  285  A    between atoms: _694  and  _695
REMARK  286  A    between atoms: _694  and  _697
REMARK  287  A    between atoms: _697  and  _698
REMARK  288  A    between atoms: _698  and  _699
REMARK  289  A    between atoms: _702  and  _704
REMARK  290  A    between atoms: _704  and  _705
REMARK  291  A    between atoms: _704  and  _707
REMARK  292  A    between atoms: _707  and  _708
REMARK  293  A    between atoms: _711  and  _713
REMARK  294  A    between atoms: _713  and  _714
REMARK  295  A    between atoms: _713  and  _716
REMARK  296  A    between atoms: _716  and  _717
REMARK  297  A    between atoms: _722  and  _724
REMARK  298  A    between atoms: _724  and  _725
REMARK  299  A    between atoms: _724  and  _727
REMARK  300  A    between atoms: _727  and  _728
REMARK  301  A    between atoms: _734  and  _736
REMARK  302  A    between atoms: _736  and  _737
REMARK  303  A    between atoms: _736  and  _739
REMARK  304  A    between atoms: _739  and  _740
REMARK  305  A    between atoms: _742  and  _744
REMARK  306  A    between atoms: _744  and  _745
REMARK  307  A    between atoms: _747  and  _749
REMARK  308  A    between atoms: _749  and  _750
REMARK  309  A    between atoms: _749  and  _752
REMARK  310  A    between atoms: _752  and  _753
REMARK  311  A    between atoms: _758  and  _759
REMARK  312  A    between atoms: _761  and  _763
REMARK  313  A    between atoms: _763  and  _764
REMARK  314  A    between atoms: _763  and  _766
REMARK  315  A    between atoms: _766  and  _767
REMARK  316  A    between atoms: _772  and  _773
REMARK  317  A    between atoms: _775  and  _777
REMARK  318  A    between atoms: _777  and  _778
REMARK  319  A    between atoms: _777  and  _780
REMARK  320  A    between atoms: _780  and  _781
REMARK  321  A    between atoms: _785  and  ZN_876
REMARK  322  A    between atoms: _786  and  _788
REMARK  323  A    between atoms: _788  and  _789
REMARK  324  A    between atoms: _788  and  _791
REMARK  325  A    between atoms: _791  and  _792
REMARK  326  A    between atoms: _792  and  _793
REMARK  327  A    between atoms: _796  and  _798
REMARK  328  A    between atoms: _798  and  _799
REMARK  329  A    between atoms: _798  and  _801
REMARK  330  A    between atoms: _801  and  _802
REMARK  331  A    between atoms: _802  and  _803
REMARK  332  A    between atoms: _803  and  _804
REMARK  333  A    between atoms: _813  and  _815
REMARK  334  A    between atoms: _815  and  _816
REMARK  335  A    between atoms: _815  and  _818
REMARK  336  A    between atoms: _818  and  _819
REMARK  337  A    between atoms: _824  and  _825
REMARK  338  A    between atoms: _827  and  _829
REMARK  339  A    between atoms: _829  and  _830
REMARK  340  A    between atoms: _829  and  _832
REMARK  341  A    between atoms: _832  and  _833
REMARK  342  A    between atoms: _838  and  _840
REMARK  343  A    between atoms: _840  and  _841
REMARK  344  A    between atoms: _840  and  _843
REMARK  345  A    between atoms: _843  and  _844
REMARK  346  A    between atoms: _844  and  _845
REMARK  347  A    between atoms: _845  and  _846
REMARK  348  A    between atoms: _846  and  _847
REMARK  349  A    between atoms: _851  and  _853
REMARK  350  A    between atoms: _853  and  _854
REMARK  351  A    between atoms: _853  and  _856
REMARK  352  A    between atoms: _856  and  _857
REMARK  353  A    between atoms: _862  and  _863
REMARK  354  A    between atoms: _865  and  _867
REMARK  355  A    between atoms: _867  and  _868
REMARK  356  A    between atoms: _871  and  _873
REMARK  357  A    between atoms: _873  and  _874
REMARK                            x       y       z     vdW  Elec       q    Type
REMARK                         _______ _______ _______ _____ _____    ______ ____
ROOT
ATOM      1  CG  TYR A   1      29.593  40.138  36.438  0.00  0.00    -0.020 A 
ATOM      2  CD2 TYR A   1      28.812  40.493  37.542  0.00  0.00    -0.001 A 
ATOM      3  CE2 TYR A   1      27.872  41.523  37.466  0.00  0.00    +0.036 A 
ATOM      4  CZ  TYR A   1      27.722  42.215  36.265  0.00  0.00    +0.134 A 
ATOM      5  CE1 TYR A   1      28.487  41.909  35.151  0.00  0.00    +0.036 A 
ATOM      6  CD1 TYR A   1      29.424  40.842  35.238  0.00  0.00    -0.001 A 
ENDROOT
BRANCH   4   7
ATOM      7  OH  TYR A   1      26.769  43.203  36.197  0.00  0.00    -0.506 OA
ATOM      8  HH  TYR A   1      26.775  43.604  35.292  0.00  0.00    +0.292 HD
ENDBRANCH   4   7
BRANCH   1   9
ATOM      9  CB  TYR A   1      30.641  39.054  36.554  0.00  0.00    +0.051 C 
BRANCH   9  10
ATOM     10  CA  TYR A   1      31.925  39.632  37.172  0.00  0.00    +0.137 C 
BRANCH  10  11
ATOM     11  N   TYR A   1      32.494  40.611  36.272  0.00  0.00    -0.239 NA
ATOM     12  H   TYR A   1      32.999  40.297  35.419  0.00  0.00    +0.142 HD
ENDBRANCH  10  11
BRANCH  10  13
ATOM     13  C   TYR A   1      32.873  38.496  37.507  0.00  0.00    +0.224 C 
ATOM     14  O   TYR A   1      32.420  37.420  37.908  0.00  0.00    -0.287 OA
ENDBRANCH  10  13
ENDBRANCH   9  10
ENDBRANCH   1   9
TORSDOF 5
REMARK  Name = ../refined-set-2016/2xei/2xei_pocket.pdb
REMARK  357 active torsions:
REMARK  status: ('A' for Active; 'I' for Inactive)
REMARK    1  A    between atoms: _1  and  _3
REMARK    2  A    between atoms: _3  and  _4
REMARK    3  A    between atoms: _7  and  _9
REMARK    4  A    between atoms: _9  and  _10
REMARK    5  A    between atoms: _9  and  _12
REMARK    6  A    between atoms: _12  and  _13
REMARK    7  A    between atoms: _19  and  _21
REMARK    8  A    between atoms: _21  and  _22
REMARK    9  A    between atoms: _24  and  _26
REMARK   10  A    between atoms: _26  and  _27
REMARK   11  A    between atoms: _26  and  _29
REMARK   12  A    between atoms: _29  and  _30
REMARK   13  A    between atoms: _30  and  _31
REMARK   14  A    between atoms: _31  and  _32
REMARK   15  A    between atoms: _32  and  _33
REMARK   16  A    between atoms: _37  and  _39
REMARK   17  A    between atoms: _39  and  _40
REMARK   18  A    between atoms: _39  and  _42
REMARK   19  A    between atoms: _45  and  _47
REMARK   20  A    between atoms: _47  and  _48
REMARK   21  A    between atoms: _47  and  _50
REMARK   22  A    between atoms: _50  and  _51
REMARK   23  A    between atoms: _57  and  _59
REMARK   24  A    between atoms: _59  and  _60
REMARK   25  A    between atoms: _59  and  _62
REMARK   26  A    between atoms: _62  and  _63
REMARK   27  A    between atoms: _63  and  _64
REMARK   28  A    between atoms: _64  and  _65
REMARK   29  A    between atoms: _74  and  _76
REMARK   30  A    between atoms: _76  and  _77
REMARK   31  A    between atoms: _79  and  _81
REMARK   32  A    between atoms: _81  and  _82
REMARK   33  A    between atoms: _81  and  _84
REMARK   34  A    between atoms: _84  and  _85
REMARK   35  A    between atoms: _90  and  _91
REMARK   36  A    between atoms: _93  and  _95
REMARK   37  A    between atoms: _95  and  _96
REMARK   38  A    between atoms: _95  and  _98
REMARK   39  A    between atoms: _98  and  _99
REMARK   40  A    between atoms: _99  and  _100
REMARK   41  A    between atoms: _105  and  _107
REMARK   42  A    between atoms: _107  and  _108
REMARK   43  A    between atoms: _107  and  _110
REMARK   44  A    between atoms: _110  and  _111
REMARK   45  A    between atoms: _111  and  _112
REMARK   46  A    between atoms: _112  and  _113
REMARK   47  A    between atoms: _122  and  _124
REMARK   48  A    between atoms: _124  and  _125
REMARK   49  A    between atoms: _127  and  _129
REMARK   50  A    between atoms: _129  and  _130
REMARK   51  A    between atoms: _129  and  _132
REMARK   52  A    between atoms: _132  and  _133
REMARK   53  A    between atoms: _138  and  _140
REMARK   54  A    between atoms: _140  and  _141
REMARK   55  A    between atoms: _140  and  _143
REMARK   56  A    between atoms: _143  and  _144
REMARK   57  A    between atoms: _147  and  _149
REMARK   58  A    between atoms: _149  and  _150
REMARK   59  A    between atoms: _149  and  _152
REMARK   60  A    between atoms: _152  and  _153
REMARK   61  A    between atoms: _156  and  _158
REMARK   62  A    between atoms: _158  and  _159
REMARK   63  A    between atoms: _158  and  _161
REMARK   64  A    between atoms: _161  and  _162
REMARK   65  A    between atoms: _167  and  _169
REMARK   66  A    between atoms: _169  and  _170
REMARK   67  A    between atoms: _169  and  _172
REMARK   68  A    between atoms: _172  and  _173
REMARK   69  A    between atoms: _176  and  _178
REMARK   70  A    between atoms: _178  and  _179
REMARK   71  A    between atoms: _178  and  _181
REMARK   72  A    between atoms: _181  and  _182
REMARK   73  A    between atoms: _187  and  _189
REMARK   74  A    between atoms: _189  and  _190
REMARK   75  A    between atoms: _192  and  _194
REMARK   76  A    between atoms: _194  and  _195
REMARK   77  A    between atoms: _194  and  _197
REMARK   78  A    between atoms: _197  and  _198
REMARK   79  A    between atoms: _202  and  ZN_877
REMARK   80  A    between atoms: _203  and  _205
REMARK   81  A    between atoms: _205  and  _206
REMARK   82  A    between atoms: _205  and  _208
REMARK   83  A    between atoms: _208  and  _209
REMARK   84  A    between atoms: _212  and  _214
REMARK   85  A    between atoms: _214  and  _215
REMARK   86  A    between atoms: _214  and  _217
REMARK   87  A    between atoms: _217  and  _218
REMARK   88  A    between atoms: _228  and  _230
REMARK   89  A    between atoms: _230  and  _231
REMARK   90  A    between atoms: _230  and  _233
REMARK   91  A    between atoms: _233  and  _234
REMARK   92  A    between atoms: _237  and  _239
REMARK   93  A    between atoms: _239  and  _240
REMARK   94  A    between atoms: _239  and  _242
REMARK   95  A    between atoms: _242  and  _243
REMARK   96  A    between atoms: _243  and  _244
REMARK   97  A    between atoms: _243  and  _245
REMARK   98  A    between atoms: _244  and  ZN_877
REMARK   99  A    between atoms: _245  and  ZN_876
REMARK  100  A    between atoms: _247  and  _248
REMARK  101  A    between atoms: _253  and  _255
REMARK  102  A    between atoms: _255  and  _256
REMARK  103  A    between atoms: _259  and  _261
REMARK  104  A    between atoms: _261  and  _262
REMARK  105  A    between atoms: _261  and  _264
REMARK  106  A    between atoms: _264  and  _265
REMARK  107  A    between atoms: _265  and  _266
REMARK  108  A    between atoms: _269  and  _271
REMARK  109  A    between atoms: _271  and  _272
REMARK  110  A    between atoms: _271  and  _274
REMARK  111  A    between atoms: _274  and  _275
REMARK  112  A    between atoms: _275  and  _276
REMARK  113  A    between atoms: _276  and  _278
REMARK  114  A    between atoms: _278  and  ZN_876
REMARK  115  A    between atoms: _279  and  _281
REMARK  116  A    between atoms: _281  and  _282
REMARK  117  A    between atoms: _281  and  _284
REMARK  118  A    between atoms: _284  and  _285
REMARK  119  A    between atoms: _291  and  _293
REMARK  120  A    between atoms: _293  and  _294
REMARK  121  A    between atoms: _296  and  _298
REMARK  122  A    between atoms: _298  and  _299
REMARK  123  A    between atoms: _298  and  _301
REMARK  124  A    between atoms: _301  and  _302
REMARK  125  A    between atoms: _305  and  _307
REMARK  126  A    between atoms: _307  and  _308
REMARK  127  A    between atoms: _307  and  _310
REMARK  128  A    between atoms: _310  and  _311
REMARK  129  A    between atoms: _314  and  _316
REMARK  130  A    between atoms: _316  and  _317
REMARK  131  A    between atoms: _316  and  _319
REMARK  132  A    between atoms: _319  and  _320
REMARK  133  A    between atoms: _325  and  _327
REMARK  134  A    between atoms: _327  and  _328
REMARK  135  A    between atoms: _327  and  _330
REMARK  136  A    between atoms: _330  and  _331
REMARK  137  A    between atoms: _331  and  _333
REMARK  138  A    between atoms: _333  and  ZN_877
REMARK  139  A    between atoms: _334  and  _336
REMARK  140  A    between atoms: _336  and  _337
REMARK  141  A    between atoms: _336  and  _339
REMARK  142  A    between atoms: _339  and  _340
REMARK  143  A    between atoms: _342  and  _344
REMARK  144  A    between atoms: _344  and  _345
REMARK  145  A    between atoms: _344  and  _347
REMARK  146  A    between atoms: _347  and  _348
REMARK  147  A    between atoms: _350  and  _352
REMARK  148  A    between atoms: _352  and  _353
REMARK  149  A    between atoms: _352  and  _355
REMARK  150  A    between atoms: _355  and  _356
REMARK  151  A    between atoms: _359  and  _361
REMARK  152  A    between atoms: _361  and  _362
REMARK  153  A    between atoms: _361  and  _364
REMARK  154  A    between atoms: _364  and  _365
REMARK  155  A    between atoms: _365  and  _366
REMARK  156  A    between atoms: _369  and  _371
REMARK  157  A    between atoms: _371  and  _372
REMARK  158  A    between atoms: _371  and  _374
REMARK  159  A    between atoms: _374  and  _375
REMARK  160  A    between atoms: _380  and  _381
REMARK  161  A    between atoms: _383  and  _385
REMARK  162  A    between atoms: _385  and  _386
REMARK  163  A    between atoms: _385  and  _388
REMARK  164  A    between atoms: _388  and  _389
REMARK  165  A    between atoms: _392  and  _394
REMARK  166  A    between atoms: _394  and  _395
REMARK  167  A    between atoms: _394  and  _397
REMARK  168  A    between atoms: _397  and  _398
REMARK  169  A    between atoms: _401  and  _403
REMARK  170  A    between atoms: _403  and  _404
REMARK  171  A    between atoms: _403  and  _406
REMARK  172  A    between atoms: _406  and  _407
REMARK  173  A    between atoms: _407  and  _408
REMARK  174  A    between atoms: _408  and  _409
REMARK  175  A    between atoms: _418  and  _420
REMARK  176  A    between atoms: _420  and  _421
REMARK  177  A    between atoms: _420  and  _423
REMARK  178  A    between atoms: _426  and  _428
REMARK  179  A    between atoms: _428  and  _429
REMARK  180  A    between atoms: _428  and  _431
REMARK  181  A    between atoms: _431  and  _432
REMARK  182  A    between atoms: _435  and  _437
REMARK  183  A    between atoms: _437  and  _438
REMARK  184  A    between atoms: _437  and  _440
REMARK  185  A    between atoms: _440  and  _441
REMARK  186  A    between atoms: _451  and  _453
REMARK  187  A    between atoms: _453  and  _454
REMARK  188  A    between atoms: _453  and  _456
REMARK  189  A    between atoms: _456  and  _457
REMARK  190  A    between atoms: _457  and  _458
REMARK  191  A    between atoms: _458  and  _459
REMARK  192  A    between atoms: _459  and  _460
REMARK  193  A    between atoms: _464  and  _466
REMARK  194  A    between atoms: _466  and  _467
REMARK  195  A    between atoms: _466  and  _469
REMARK  196  A    between atoms: _469  and  _470
REMARK  197  A    between atoms: _473  and  _474
REMARK  198  A    between atoms: _479  and  _481
REMARK  199  A    between atoms: _481  and  _482
REMARK  200  A    between atoms: _481  and  _484
REMARK  201  A    between atoms: _484  and  _485
REMARK  202  A    between atoms: _485  and  _486
REMARK  203  A    between atoms: _486  and  _487
REMARK  204  A    between atoms: _496  and  _498
REMARK  205  A    between atoms: _498  and  _499
REMARK  206  A    between atoms: _498  and  _501
REMARK  207  A    between atoms: _501  and  _502
REMARK  208  A    between atoms: _505  and  _507
REMARK  209  A    between atoms: _507  and  _508
REMARK  210  A    between atoms: _507  and  _510
REMARK  211  A    between atoms: _510  and  _511
REMARK  212  A    between atoms: _513  and  _515
REMARK  213  A    between atoms: _515  and  _516
REMARK  214  A    between atoms: _515  and  _518
REMARK  215  A    between atoms: _518  and  _519
REMARK  216  A    between atoms: _519  and  _520
REMARK  217  A    between atoms: _520  and  _521
REMARK  218  A    between atoms: _521  and  _522
REMARK  219  A    between atoms: _526  and  _528
REMARK  220  A    between atoms: _528  and  _529
REMARK  221  A    between atoms: _528  and  _531
REMARK  222  A    between atoms: _531  and  _532
REMARK  223  A    between atoms: _535  and  _537
REMARK  224  A    between atoms: _537  and  _538
REMARK  225  A    between atoms: _540  and  _542
REMARK  226  A    between atoms: _542  and  _543
REMARK  227  A    between atoms: _542  and  _545
REMARK  228  A    between atoms: _545  and  _546
REMARK  229  A    between atoms: _548  and  _550
REMARK  230  A    between atoms: _550  and  _551
REMARK  231  A    between atoms: _553  and  _555
REMARK  232  A    between atoms: _555  and  _556
REMARK  233  A    between atoms: _555  and  _558
REMARK  234  A    between atoms: _558  and  _559
REMARK  235  A    between atoms: _564  and  _566
REMARK  236  A    between atoms: _566  and  _567
REMARK  237  A    between atoms: _566  and  _569
REMARK  238  A    between atoms: _569  and  _570
REMARK  239  A    between atoms: _573  and  _575
REMARK  240  A    between atoms: _575  and  _576
REMARK  241  A    between atoms: _575  and  _578
REMARK  242  A    between atoms: _578  and  _579
REMARK  243  A    between atoms: _585  and  _587
REMARK  244  A    between atoms: _587  and  _588
REMARK  245  A    between atoms: _587  and  _590
REMARK  246  A    between atoms: _590  and  _591
REMARK  247  A    between atoms: _591  and  _592
REMARK  248  A    between atoms: _595  and  _597
REMARK  249  A    between atoms: _597  and  _598
REMARK  250  A    between atoms: _597  and  _600
REMARK  251  A    between atoms: _600  and  _601
REMARK  252  A    between atoms: _601  and  _602
REMARK  253  A    between atoms: _602  and  _603
REMARK  254  A    between atoms: _612  and  _614
REMARK  255  A    between atoms: _614  and  _615
REMARK  256  A    between atoms: _614  and  _617
REMARK  257  A    between atoms: _617  and  _618
REMARK  258  A    between atoms: _618  and  _619
REMARK  259  A    between atoms: _619  and  _620
REMARK  260  A    between atoms: _629  and  _631
REMARK  261  A    between atoms: _631  and  _632
REMARK  262  A    between atoms: _631  and  _634
REMARK  263  A    between atoms: _634  and  _635
REMARK  264  A    between atoms: _640  and  _641
REMARK  265  A    between atoms: _643  and  _645
REMARK  266  A    between atoms: _645  and  _646
REMARK  267  A    between atoms: _645  and  _648
REMARK  268  A    between atoms: _648  and  _649
REMARK  269  A    between atoms: _652  and  _654
REMARK  270  A    between atoms: _654  and  _655
REMARK  271  A    between atoms: _654  and  _657
REMARK  272  A    between atoms: _657  and  _658
REMARK  273  A    between atoms: _658  and  _659
REMARK  274  A    between atoms: _659  and  _660
REMARK  275  A    between atoms: _660  and  _661
REMARK  276  A    between atoms: _665  and  _667
REMARK  277  A    between atoms: _667  and  _668
REMARK  278  A    between atoms: _667  and  _670
REMARK  279  A    between atoms: _670  and  _671
REMARK  280  A    between atoms: _676  and  _678
REMARK  281  A    between atoms: _678  and  _679
REMARK  282  A    between atoms: _678  and  _681
REMARK  283  A    between atoms: _681  and  _682
REMARK  284  A    between atoms: _692  and  _694
REMARK  285  A    between atoms: _694  and  _695
REMARK  286  A    between atoms: _694  and  _697
REMARK  287  A    between atoms: _697  and  _698
REMARK  288  A    between atoms: _698  and  _699
REMARK  289  A    between atoms: _702  and  _704
REMARK  290  A    between atoms: _704  and  _705
REMARK  291  A    between atoms: _704  and  _707
REMARK  292  A    between atoms: _707  and  _708
REMARK  293  A    between atoms: _711  and  _713
REMARK  294  A    between atoms: _713  and  _714
REMARK  295  A    between atoms: _713  and  _716
REMARK  296  A    between atoms: _716  and  _717
REMARK  297  A    between atoms: _722  and  _724
REMARK  298  A    between atoms: _724  and  _725
REMARK  299  A    between atoms: _724  and  _727
REMARK  300  A    between atoms: _727  and  _728
REMARK  301  A    between atoms: _734  and  _736
REMARK  302  A    between atoms: _736  and  _737
REMARK  303  A    between atoms: _736  and  _739
REMARK  304  A    between atoms: _739  and  _740
REMARK  305  A    between atoms: _742  and  _744
REMARK  306  A    between atoms: _744  and  _745
REMARK  307  A    between atoms: _747  and  _749
REMARK  308  A    between atoms: _749  and  _750
REMARK  309  A    between atoms: _749  and  _752
REMARK  310  A    between atoms: _752  and  _753
REMARK  311  A    between atoms: _758  and  _759
REMARK  312  A    between atoms: _761  and  _763
REMARK  313  A    between atoms: _763  and  _764
REMARK  314  A    between atoms: _763  and  _766
REMARK  315  A    between atoms: _766  and  _767
REMARK  316  A    between atoms: _772  and  _773
REMARK  317  A    between atoms: _775  and  _777
REMARK  318  A    between atoms: _777  and  _778
REMARK  319  A    between atoms: _777  and  _780
REMARK  320  A    between atoms: _780  and  _781
REMARK  321  A    between atoms: _785  and  ZN_876
REMARK  322  A    between atoms: _786  and  _788
REMARK  323  A    between atoms: _788  and  _789
REMARK  324  A    between atoms: _788  and  _791
REMARK  325  A    between atoms: _791  and  _792
REMARK  326  A    between atoms: _792  and  _793
REMARK  327  A    between atoms: _796  and  _798
REMARK  328  A    between atoms: _798  and  _799
REMARK  329  A    between atoms: _798  and  _801
REMARK  330  A    between atoms: _801  and  _802
REMARK  331  A    between atoms: _802  and  _803
REMARK  332  A    between atoms: _803  and  _804
REMARK  333  A    between atoms: _813  and  _815
REMARK  334  A    between atoms: _815  and  _816
REMARK  335  A    between atoms: _815  and  _818
REMARK  336  A    between atoms: _818  and  _819
REMARK  337  A    between atoms: _824  and  _825
REMARK  338  A    between atoms: _827  and  _829
REMARK  339  A    between atoms: _829  and  _830
REMARK  340  A    between atoms: _829  and  _832
REMARK  341  A    between atoms: _832  and  _833
REMARK  342  A    between atoms: _838  and  _840
REMARK  343  A    between atoms: _840  and  _841
REMARK  344  A    between atoms: _840  and  _843
REMARK  345  A    between atoms: _843  and  _844
REMARK  346  A    between atoms: _844  and  _845
REMARK  347  A    between atoms: _845  and  _846
REMARK  348  A    between atoms: _846  and  _847
REMARK  349  A    between atoms: _851  and  _853
REMARK  350  A    between atoms: _853  and  _854
REMARK  351  A    between atoms: _853  and  _856
REMARK  352  A    between atoms: _856  and  _857
REMARK  353  A    between atoms: _862  and  _863
REMARK  354  A    between atoms: _865  and  _867
REMARK  355  A    between atoms: _867  and  _868
REMARK  356  A    between atoms: _871  and  _873
REMARK  357  A    between atoms: _873  and  _874
REMARK                            x       y       z     vdW  Elec       q    Type
REMARK                         _______ _______ _______ _____ _____    ______ ____
ROOT
ATOM      1  CA  ILE A   5      14.100  45.243  32.158  0.00  0.00    +0.149 C 
ENDROOT
BRANCH   1   2
ATOM      2  C   ILE A   5      13.057  46.332  31.960  0.00  0.00    +0.241 C 
ATOM      3  N   LEU A   6      12.219  46.491  32.978  0.00  0.00    -0.297 N 
ATOM      4  H   LEU A   6      12.314  45.886  33.819  0.00  0.00    +0.150 HD
ATOM      5  O   ILE A   5      13.003  47.006  30.928  0.00  0.00    -0.273 OA
BRANCH   3   6
ATOM      6  CA  LEU A   6      11.147  47.521  32.934  0.00  0.00    +0.149 C 
BRANCH   6   7
ATOM      7  C   LEU A   6      11.746  48.908  33.144  0.00  0.00    +0.241 C 
ATOM      8  O   LEU A   6      12.778  49.046  33.754  0.00  0.00    -0.273 OA
ATOM      9  N   ASN A   7      11.019  49.940  32.709  0.00  0.00    -0.297 N 
ATOM     10  H   ASN A   7      10.222  49.776  32.062  0.00  0.00    +0.150 HD
BRANCH   9  11
ATOM     11  CA  ASN A   7      11.343  51.315  33.144  0.00  0.00    +0.158 C 
BRANCH  11  12
ATOM     12  C   ASN A   7      10.096  51.908  33.766  0.00  0.00    +0.241 C 
ATOM     13  N   LEU A   8       9.815  51.547  35.011  0.00  0.00    -0.297 N 
ATOM     14  H   LEU A   8      10.515  51.002  35.554  0.00  0.00    +0.150 HD
ATOM     15  O   ASN A   7       9.358  52.629  33.084  0.00  0.00    -0.273 OA
BRANCH  13  16
ATOM     16  CA  LEU A   8       8.548  51.898  35.633  0.00  0.00    +0.149 C 
BRANCH  16  17
ATOM     17  C   LEU A   8       8.574  53.312  36.168  0.00  0.00    +0.241 C 
ATOM     18  N   ASN A   9       9.784  53.848  36.442  0.00  0.00    -0.297 N 
ATOM     19  H   ASN A   9      10.651  53.341  36.172  0.00  0.00    +0.150 HD
ATOM     20  O   LEU A   8       7.506  53.898  36.404  0.00  0.00    -0.273 OA
BRANCH  18  21
ATOM     21  CA  ASN A   9       9.875  55.169  37.133  0.00  0.00    +0.158 C 
BRANCH  21  22
ATOM     22  C   ASN A   9       8.957  55.305  38.358  0.00  0.00    +0.241 C 
ATOM     23  N   GLY A  10       8.931  54.246  39.169  0.00  0.00    -0.296 N 
ATOM     24  H   GLY A  10       9.428  53.374  38.896  0.00  0.00    +0.150 HD
ATOM     25  O   ASN A   9       8.294  56.342  38.539  0.00  0.00    -0.273 OA
BRANCH  23  26
ATOM     26  CA  GLY A  10       8.209  54.303  40.437  0.00  0.00    +0.163 C 
BRANCH  26  27
ATOM     27  C   GLY A  10       6.745  53.910  40.352  0.00  0.00    +0.229 C 
ATOM     28  O   GLY A  10       6.045  53.981  41.373  0.00  0.00    -0.286 OA
ENDBRANCH  26  27
ENDBRANCH  23  26
ENDBRANCH  21  22
BRANCH  21  29
ATOM     29  CB  ASN A   9       9.566  56.302  36.149  0.00  0.00    +0.114 C 
BRANCH  29  30
ATOM     30  CG  ASN A   9      10.573  56.359  35.024  0.00  0.00    +0.222 C 
ATOM     31  OD1 ASN A   9      11.772  56.086  35.239  0.00  0.00    -0.275 OA
ATOM     32  ND2 ASN A   9      10.097  56.642  33.816  0.00  0.00    -0.329 N 
ATOM     33 HD21 ASN A   9       9.088  56.863  33.693  0.00  0.00    +0.145 HD
ATOM     34 HD22 ASN A   9      10.733  56.643  32.993  0.00  0.00    +0.145 HD
ENDBRANCH  29  30
ENDBRANCH  21  29
ENDBRANCH  18  21
ENDBRANCH  16  17
BRANCH  16  35
ATOM     35  CB  LEU A   8       8.319  50.952  36.829  0.00  0.00    +0.029 C 
BRANCH  35  36
ATOM     36  CG  LEU A   8       7.961  49.538  36.402  0.00  0.00    +0.002 C 
ATOM     37  CD2 LEU A   8       7.923  48.687  37.735  0.00  0.00    +0.000 C 
ATOM     38  CD1 LEU A   8       6.598  49.560  35.700  0.00  0.00    +0.000 C 
ENDBRANCH  35  36
ENDBRANCH  16  35
ENDBRANCH  13  16
ENDBRANCH  11  12
BRANCH  11  39
ATOM     39  CB  ASN A   7      11.740  52.107  31.894  0.00  0.00    +0.114 C 
BRANCH  39  40
ATOM     40  CG  ASN A   7      13.197  51.796  31.491  0.00  0.00    +0.222 C 
ATOM     41  OD1 ASN A   7      14.147  52.410  32.037  0.00  0.00    -0.275 OA
ATOM     42  ND2 ASN A   7      13.377  50.783  30.629  0.00  0.00    -0.329 N 
ATOM     43 HD21 ASN A   7      14.339  50.473  30.385  0.00  0.00    +0.145 HD
ATOM     44 HD22 ASN A   7      12.554  50.309  30.205  0.00  0.00    +0.145 HD
ENDBRANCH  39  40
ENDBRANCH  11  39
ENDBRANCH   9  11
ENDBRANCH   6   7
BRANCH   6  45
ATOM     45  CB  LEU A   6      10.187  47.332  34.132  0.00  0.00    +0.029 C 
BRANCH  45  46
ATOM     46  CG  LEU A   6       9.326  46.061  33.971  0.00  0.00    +0.002 C 
ATOM     47  CD2 LEU A   6       8.464  45.953  35.251  0.00  0.00    +0.000 C 
ATOM     48  CD1 LEU A   6       8.438  46.094  32.753  0.00  0.00    +0.000 C 
ENDBRANCH  45  46
ENDBRANCH   6  45
ENDBRANCH   3   6
ENDBRANCH   1   2
BRANCH   1  51
ATOM     49  C   ASN A   4      14.292  43.797  34.177  0.00  0.00    +0.241 C 
ATOM     50  O   ASN A   4      15.344  44.325  34.564  0.00  0.00    -0.273 OA
ATOM     51  N   ILE A   5      13.660  44.154  33.059  0.00  0.00    -0.297 N 
ATOM     52  H   ILE A   5      12.798  43.631  32.802  0.00  0.00    +0.150 HD
BRANCH  49  53
ATOM     53  CA  ASN A   4      13.655  42.601  34.917  0.00  0.00    +0.158 C 
BRANCH  53  55
ATOM     54  C   GLY A   3      15.488  41.099  35.133  0.00  0.00    +0.243 C 
ATOM     55  N   ASN A   4      14.618  41.903  35.739  0.00  0.00    -0.297 N 
ATOM     56  H   ASN A   4      14.630  42.025  36.772  0.00  0.00    +0.150 HD
ATOM     57  O   GLY A   3      15.543  40.940  33.889  0.00  0.00    -0.273 OA
BRANCH  54  58
ATOM     58  CA  GLY A   3      16.491  40.422  36.046  0.00  0.00    +0.176 C 
BRANCH  58  61
ATOM     59  C   ARG A   2      18.090  38.625  35.966  0.00  0.00    +0.241 C 
ATOM     60  O   ARG A   2      18.865  39.274  36.664  0.00  0.00    -0.273 OA
ATOM     61  N   GLY A   3      16.916  39.115  35.542  0.00  0.00    -0.295 N 
ATOM     62  H   GLY A   3      16.324  38.581  34.874  0.00  0.00    +0.150 HD
BRANCH  59  63
ATOM     63  CA  ARG A   2      18.391  37.157  35.581  0.00  0.00    +0.149 C 
BRANCH  63  65
ATOM     64  C   GLN A   1      20.765  37.296  35.053  0.00  0.00    +0.238 C 
ATOM     65  N   ARG A   2      19.795  36.829  35.827  0.00  0.00    -0.297 N 
ATOM     66  H   ARG A   2      20.039  36.214  36.629  0.00  0.00    +0.150 HD
ATOM     67  O   GLN A   1      20.558  37.860  33.954  0.00  0.00    -0.274 OA
BRANCH  64  68
ATOM     68  CA  GLN A   1      22.184  37.088  35.562  0.00  0.00    +0.145 C 
BRANCH  68  69
ATOM     69  N   GLN A   1      22.850  36.173  34.641  0.00  0.00    -0.238 NA
ATOM     70  H   GLN A   1      23.311  36.565  33.795  0.00  0.00    +0.142 HD
ENDBRANCH  68  69
BRANCH  68  71
ATOM     71  CB  GLN A   1      22.932  38.437  35.556  0.00  0.00    +0.036 C 
BRANCH  71  72
ATOM     72  CG  GLN A   1      22.283  39.494  36.432  0.00  0.00    +0.087 C 
BRANCH  72  73
ATOM     73  CD  GLN A   1      22.838  40.896  36.188  0.00  0.00    +0.219 C 
ATOM     74  OE1 GLN A   1      22.068  41.891  36.231  0.00  0.00    -0.275 OA
ATOM     75  NE2 GLN A   1      24.183  41.007  36.047  0.00  0.00    -0.329 N 
ATOM     76 HE21 GLN A   1      24.775  40.152  36.017  0.00  0.00    +0.145 HD
ATOM     77 HE22 GLN A   1      24.622  41.947  35.969  0.00  0.00    +0.145 HD
ENDBRANCH  72  73
ENDBRANCH  71  72
ENDBRANCH  68  71
ENDBRANCH  64  68
ENDBRANCH  63  65
BRANCH  63  78
ATOM     78  CB  ARG A   2      17.474  36.246  36.409  0.00  0.00    +0.033 C 
BRANCH  78  79
ATOM     79  CG  ARG A   2      17.456  34.822  35.837  0.00  0.00    +0.045 C 
BRANCH  79  80
ATOM     80  CD  ARG A   2      17.131  33.831  36.974  0.00  0.00    +0.174 C 
BRANCH  80  81
ATOM     81  NE  ARG A   2      17.346  32.422  36.597  0.00  0.00    -0.265 N 
ATOM     82  CZ  ARG A   2      18.561  31.861  36.563  0.00  0.00    +0.342 C 
ATOM     83  NH2 ARG A   2      19.667  32.612  36.813  0.00  0.00    -0.292 N 
ATOM     84 HH21 ARG A   2      19.570  33.624  37.031  0.00  0.00    +0.255 HD
ATOM     85 HH22 ARG A   2      20.610  32.174  36.786  0.00  0.00    +0.255 HD
ATOM     86  NH1 ARG A   2      18.688  30.556  36.233  0.00  0.00    -0.292 N 
ATOM     87 HH11 ARG A   2      19.630  30.116  36.205  0.00  0.00    +0.255 HD
ATOM     88 HH12 ARG A   2      17.844  29.992  36.007  0.00  0.00    +0.255 HD
ATOM     89  HE  ARG A   2      16.521  31.841  36.347  0.00  0.00    +0.259 HD
ENDBRANCH  80  81
ENDBRANCH  79  80
ENDBRANCH  78  79
ENDBRANCH  63  78
ENDBRANCH  59  63
ENDBRANCH  58  61
ENDBRANCH  54  58
ENDBRANCH  53  55
BRANCH  53  90
ATOM     90  CB  ASN A   4      12.438  43.033  35.741  0.00  0.00    +0.114 C 
BRANCH  90  91
ATOM     91  CG  ASN A   4      12.653  44.379  36.434  0.00  0.00    +0.222 C 
ATOM     92  ND2 ASN A   4      12.820  44.374  37.775  0.00  0.00    -0.329 N 
ATOM     93 HD21 ASN A   4      12.903  45.273  38.292  0.00  0.00    +0.145 HD
ATOM     94 HD22 ASN A   4      12.865  43.472  38.290  0.00  0.00    +0.145 HD
ATOM     95  OD1 ASN A   4      12.596  45.426  35.800  0.00  0.00    -0.275 OA
ENDBRANCH  90  91
ENDBRANCH  53  90
ENDBRANCH  49  53
ENDBRANCH   1  51
BRANCH   1  96
ATOM     96  CB  ILE A   5      14.548  44.626  30.771  0.00  0.00    +0.027 C 
ATOM     97  CG2 ILE A   5      15.807  43.787  30.951  0.00  0.00    +0.002 C 
BRANCH  96  98
ATOM     98  CG1 ILE A   5      13.464  43.698  30.233  0.00  0.00    +0.002 C 
ATOM     99  CD1 ILE A   5      13.589  43.351  28.642  0.00  0.00    +0.000 C 
ENDBRANCH  96  98
ENDBRANCH   1  96
TORSDOF 39
REMARK  Name = ../refined-set-2016/2xei/2xei_pocket.pdb
REMARK  357 active torsions:
REMARK  status: ('A' for Active; 'I' for Inactive)
REMARK    1  A    between atoms: _1  and  _3
REMARK    2  A    between atoms: _3  and  _4
REMARK    3  A    between atoms: _7  and  _9
REMARK    4  A    between atoms: _9  and  _10
REMARK    5  A    between atoms: _9  and  _12
REMARK    6  A    between atoms: _12  and  _13
REMARK    7  A    between atoms: _19  and  _21
REMARK    8  A    between atoms: _21  and  _22
REMARK    9  A    between atoms: _24  and  _26
REMARK   10  A    between atoms: _26  and  _27
REMARK   11  A    between atoms: _26  and  _29
REMARK   12  A    between atoms: _29  and  _30
REMARK   13  A    between atoms: _30  and  _31
REMARK   14  A    between atoms: _31  and  _32
REMARK   15  A    between atoms: _32  and  _33
REMARK   16  A    between atoms: _37  and  _39
REMARK   17  A    between atoms: _39  and  _40
REMARK   18  A    between atoms: _39  and  _42
REMARK   19  A    between atoms: _45  and  _47
REMARK   20  A    between atoms: _47  and  _48
REMARK   21  A    between atoms: _47  and  _50
REMARK   22  A    between atoms: _50  and  _51
REMARK   23  A    between atoms: _57  and  _59
REMARK   24  A    between atoms: _59  and  _60
REMARK   25  A    between atoms: _59  and  _62
REMARK   26  A    between atoms: _62  and  _63
REMARK   27  A    between atoms: _63  and  _64
REMARK   28  A    between atoms: _64  and  _65
REMARK   29  A    between atoms: _74  and  _76
REMARK   30  A    between atoms: _76  and  _77
REMARK   31  A    between atoms: _79  and  _81
REMARK   32  A    between atoms: _81  and  _82
REMARK   33  A    between atoms: _81  and  _84
REMARK   34  A    between atoms: _84  and  _85
REMARK   35  A    between atoms: _90  and  _91
REMARK   36  A    between atoms: _93  and  _95
REMARK   37  A    between atoms: _95  and  _96
REMARK   38  A    between atoms: _95  and  _98
REMARK   39  A    between atoms: _98  and  _99
REMARK   40  A    between atoms: _99  and  _100
REMARK   41  A    between atoms: _105  and  _107
REMARK   42  A    between atoms: _107  and  _108
REMARK   43  A    between atoms: _107  and  _110
REMARK   44  A    between atoms: _110  and  _111
REMARK   45  A    between atoms: _111  and  _112
REMARK   46  A    between atoms: _112  and  _113
REMARK   47  A    between atoms: _122  and  _124
REMARK   48  A    between atoms: _124  and  _125
REMARK   49  A    between atoms: _127  and  _129
REMARK   50  A    between atoms: _129  and  _130
REMARK   51  A    between atoms: _129  and  _132
REMARK   52  A    between atoms: _132  and  _133
REMARK   53  A    between atoms: _138  and  _140
REMARK   54  A    between atoms: _140  and  _141
REMARK   55  A    between atoms: _140  and  _143
REMARK   56  A    between atoms: _143  and  _144
REMARK   57  A    between atoms: _147  and  _149
REMARK   58  A    between atoms: _149  and  _150
REMARK   59  A    between atoms: _149  and  _152
REMARK   60  A    between atoms: _152  and  _153
REMARK   61  A    between atoms: _156  and  _158
REMARK   62  A    between atoms: _158  and  _159
REMARK   63  A    between atoms: _158  and  _161
REMARK   64  A    between atoms: _161  and  _162
REMARK   65  A    between atoms: _167  and  _169
REMARK   66  A    between atoms: _169  and  _170
REMARK   67  A    between atoms: _169  and  _172
REMARK   68  A    between atoms: _172  and  _173
REMARK   69  A    between atoms: _176  and  _178
REMARK   70  A    between atoms: _178  and  _179
REMARK   71  A    between atoms: _178  and  _181
REMARK   72  A    between atoms: _181  and  _182
REMARK   73  A    between atoms: _187  and  _189
REMARK   74  A    between atoms: _189  and  _190
REMARK   75  A    between atoms: _192  and  _194
REMARK   76  A    between atoms: _194  and  _195
REMARK   77  A    between atoms: _194  and  _197
REMARK   78  A    between atoms: _197  and  _198
REMARK   79  A    between atoms: _202  and  ZN_877
REMARK   80  A    between atoms: _203  and  _205
REMARK   81  A    between atoms: _205  and  _206
REMARK   82  A    between atoms: _205  and  _208
REMARK   83  A    between atoms: _208  and  _209
REMARK   84  A    between atoms: _212  and  _214
REMARK   85  A    between atoms: _214  and  _215
REMARK   86  A    between atoms: _214  and  _217
REMARK   87  A    between atoms: _217  and  _218
REMARK   88  A    between atoms: _228  and  _230
REMARK   89  A    between atoms: _230  and  _231
REMARK   90  A    between atoms: _230  and  _233
REMARK   91  A    between atoms: _233  and  _234
REMARK   92  A    between atoms: _237  and  _239
REMARK   93  A    between atoms: _239  and  _240
REMARK   94  A    between atoms: _239  and  _242
REMARK   95  A    between atoms: _242  and  _243
REMARK   96  A    between atoms: _243  and  _244
REMARK   97  A    between atoms: _243  and  _245
REMARK   98  A    between atoms: _244  and  ZN_877
REMARK   99  A    between atoms: _245  and  ZN_876
REMARK  100  A    between atoms: _247  and  _248
REMARK  101  A    between atoms: _253  and  _255
REMARK  102  A    between atoms: _255  and  _256
REMARK  103  A    between atoms: _259  and  _261
REMARK  104  A    between atoms: _261  and  _262
REMARK  105  A    between atoms: _261  and  _264
REMARK  106  A    between atoms: _264  and  _265
REMARK  107  A    between atoms: _265  and  _266
REMARK  108  A    between atoms: _269  and  _271
REMARK  109  A    between atoms: _271  and  _272
REMARK  110  A    between atoms: _271  and  _274
REMARK  111  A    between atoms: _274  and  _275
REMARK  112  A    between atoms: _275  and  _276
REMARK  113  A    between atoms: _276  and  _278
REMARK  114  A    between atoms: _278  and  ZN_876
REMARK  115  A    between atoms: _279  and  _281
REMARK  116  A    between atoms: _281  and  _282
REMARK  117  A    between atoms: _281  and  _284
REMARK  118  A    between atoms: _284  and  _285
REMARK  119  A    between atoms: _291  and  _293
REMARK  120  A    between atoms: _293  and  _294
REMARK  121  A    between atoms: _296  and  _298
REMARK  122  A    between atoms: _298  and  _299
REMARK  123  A    between atoms: _298  and  _301
REMARK  124  A    between atoms: _301  and  _302
REMARK  125  A    between atoms: _305  and  _307
REMARK  126  A    between atoms: _307  and  _308
REMARK  127  A    between atoms: _307  and  _310
REMARK  128  A    between atoms: _310  and  _311
REMARK  129  A    between atoms: _314  and  _316
REMARK  130  A    between atoms: _316  and  _317
REMARK  131  A    between atoms: _316  and  _319
REMARK  132  A    between atoms: _319  and  _320
REMARK  133  A    between atoms: _325  and  _327
REMARK  134  A    between atoms: _327  and  _328
REMARK  135  A    between atoms: _327  and  _330
REMARK  136  A    between atoms: _330  and  _331
REMARK  137  A    between atoms: _331  and  _333
REMARK  138  A    between atoms: _333  and  ZN_877
REMARK  139  A    between atoms: _334  and  _336
REMARK  140  A    between atoms: _336  and  _337
REMARK  141  A    between atoms: _336  and  _339
REMARK  142  A    between atoms: _339  and  _340
REMARK  143  A    between atoms: _342  and  _344
REMARK  144  A    between atoms: _344  and  _345
REMARK  145  A    between atoms: _344  and  _347
REMARK  146  A    between atoms: _347  and  _348
REMARK  147  A    between atoms: _350  and  _352
REMARK  148  A    between atoms: _352  and  _353
REMARK  149  A    between atoms: _352  and  _355
REMARK  150  A    between atoms: _355  and  _356
REMARK  151  A    between atoms: _359  and  _361
REMARK  152  A    between atoms: _361  and  _362
REMARK  153  A    between atoms: _361  and  _364
REMARK  154  A    between atoms: _364  and  _365
REMARK  155  A    between atoms: _365  and  _366
REMARK  156  A    between atoms: _369  and  _371
REMARK  157  A    between atoms: _371  and  _372
REMARK  158  A    between atoms: _371  and  _374
REMARK  159  A    between atoms: _374  and  _375
REMARK  160  A    between atoms: _380  and  _381
REMARK  161  A    between atoms: _383  and  _385
REMARK  162  A    between atoms: _385  and  _386
REMARK  163  A    between atoms: _385  and  _388
REMARK  164  A    between atoms: _388  and  _389
REMARK  165  A    between atoms: _392  and  _394
REMARK  166  A    between atoms: _394  and  _395
REMARK  167  A    between atoms: _394  and  _397
REMARK  168  A    between atoms: _397  and  _398
REMARK  169  A    between atoms: _401  and  _403
REMARK  170  A    between atoms: _403  and  _404
REMARK  171  A    between atoms: _403  and  _406
REMARK  172  A    between atoms: _406  and  _407
REMARK  173  A    between atoms: _407  and  _408
REMARK  174  A    between atoms: _408  and  _409
REMARK  175  A    between atoms: _418  and  _420
REMARK  176  A    between atoms: _420  and  _421
REMARK  177  A    between atoms: _420  and  _423
REMARK  178  A    between atoms: _426  and  _428
REMARK  179  A    between atoms: _428  and  _429
REMARK  180  A    between atoms: _428  and  _431
REMARK  181  A    between atoms: _431  and  _432
REMARK  182  A    between atoms: _435  and  _437
REMARK  183  A    between atoms: _437  and  _438
REMARK  184  A    between atoms: _437  and  _440
REMARK  185  A    between atoms: _440  and  _441
REMARK  186  A    between atoms: _451  and  _453
REMARK  187  A    between atoms: _453  and  _454
REMARK  188  A    between atoms: _453  and  _456
REMARK  189  A    between atoms: _456  and  _457
REMARK  190  A    between atoms: _457  and  _458
REMARK  191  A    between atoms: _458  and  _459
REMARK  192  A    between atoms: _459  and  _460
REMARK  193  A    between atoms: _464  and  _466
REMARK  194  A    between atoms: _466  and  _467
REMARK  195  A    between atoms: _466  and  _469
REMARK  196  A    between atoms: _469  and  _470
REMARK  197  A    between atoms: _473  and  _474
REMARK  198  A    between atoms: _479  and  _481
REMARK  199  A    between atoms: _481  and  _482
REMARK  200  A    between atoms: _481  and  _484
REMARK  201  A    between atoms: _484  and  _485
REMARK  202  A    between atoms: _485  and  _486
REMARK  203  A    between atoms: _486  and  _487
REMARK  204  A    between atoms: _496  and  _498
REMARK  205  A    between atoms: _498  and  _499
REMARK  206  A    between atoms: _498  and  _501
REMARK  207  A    between atoms: _501  and  _502
REMARK  208  A    between atoms: _505  and  _507
REMARK  209  A    between atoms: _507  and  _508
REMARK  210  A    between atoms: _507  and  _510
REMARK  211  A    between atoms: _510  and  _511
REMARK  212  A    between atoms: _513  and  _515
REMARK  213  A    between atoms: _515  and  _516
REMARK  214  A    between atoms: _515  and  _518
REMARK  215  A    between atoms: _518  and  _519
REMARK  216  A    between atoms: _519  and  _520
REMARK  217  A    between atoms: _520  and  _521
REMARK  218  A    between atoms: _521  and  _522
REMARK  219  A    between atoms: _526  and  _528
REMARK  220  A    between atoms: _528  and  _529
REMARK  221  A    between atoms: _528  and  _531
REMARK  222  A    between atoms: _531  and  _532
REMARK  223  A    between atoms: _535  and  _537
REMARK  224  A    between atoms: _537  and  _538
REMARK  225  A    between atoms: _540  and  _542
REMARK  226  A    between atoms: _542  and  _543
REMARK  227  A    between atoms: _542  and  _545
REMARK  228  A    between atoms: _545  and  _546
REMARK  229  A    between atoms: _548  and  _550
REMARK  230  A    between atoms: _550  and  _551
REMARK  231  A    between atoms: _553  and  _555
REMARK  232  A    between atoms: _555  and  _556
REMARK  233  A    between atoms: _555  and  _558
REMARK  234  A    between atoms: _558  and  _559
REMARK  235  A    between atoms: _564  and  _566
REMARK  236  A    between atoms: _566  and  _567
REMARK  237  A    between atoms: _566  and  _569
REMARK  238  A    between atoms: _569  and  _570
REMARK  239  A    between atoms: _573  and  _575
REMARK  240  A    between atoms: _575  and  _576
REMARK  241  A    between atoms: _575  and  _578
REMARK  242  A    between atoms: _578  and  _579
REMARK  243  A    between atoms: _585  and  _587
REMARK  244  A    between atoms: _587  and  _588
REMARK  245  A    between atoms: _587  and  _590
REMARK  246  A    between atoms: _590  and  _591
REMARK  247  A    between atoms: _591  and  _592
REMARK  248  A    between atoms: _595  and  _597
REMARK  249  A    between atoms: _597  and  _598
REMARK  250  A    between atoms: _597  and  _600
REMARK  251  A    between atoms: _600  and  _601
REMARK  252  A    between atoms: _601  and  _602
REMARK  253  A    between atoms: _602  and  _603
REMARK  254  A    between atoms: _612  and  _614
REMARK  255  A    between atoms: _614  and  _615
REMARK  256  A    between atoms: _614  and  _617
REMARK  257  A    between atoms: _617  and  _618
REMARK  258  A    between atoms: _618  and  _619
REMARK  259  A    between atoms: _619  and  _620
REMARK  260  A    between atoms: _629  and  _631
REMARK  261  A    between atoms: _631  and  _632
REMARK  262  A    between atoms: _631  and  _634
REMARK  263  A    between atoms: _634  and  _635
REMARK  264  A    between atoms: _640  and  _641
REMARK  265  A    between atoms: _643  and  _645
REMARK  266  A    between atoms: _645  and  _646
REMARK  267  A    between atoms: _645  and  _648
REMARK  268  A    between atoms: _648  and  _649
REMARK  269  A    between atoms: _652  and  _654
REMARK  270  A    between atoms: _654  and  _655
REMARK  271  A    between atoms: _654  and  _657
REMARK  272  A    between atoms: _657  and  _658
REMARK  273  A    between atoms: _658  and  _659
REMARK  274  A    between atoms: _659  and  _660
REMARK  275  A    between atoms: _660  and  _661
REMARK  276  A    between atoms: _665  and  _667
REMARK  277  A    between atoms: _667  and  _668
REMARK  278  A    between atoms: _667  and  _670
REMARK  279  A    between atoms: _670  and  _671
REMARK  280  A    between atoms: _676  and  _678
REMARK  281  A    between atoms: _678  and  _679
REMARK  282  A    between atoms: _678  and  _681
REMARK  283  A    between atoms: _681  and  _682
REMARK  284  A    between atoms: _692  and  _694
REMARK  285  A    between atoms: _694  and  _695
REMARK  286  A    between atoms: _694  and  _697
REMARK  287  A    between atoms: _697  and  _698
REMARK  288  A    between atoms: _698  and  _699
REMARK  289  A    between atoms: _702  and  _704
REMARK  290  A    between atoms: _704  and  _705
REMARK  291  A    between atoms: _704  and  _707
REMARK  292  A    between atoms: _707  and  _708
REMARK  293  A    between atoms: _711  and  _713
REMARK  294  A    between atoms: _713  and  _714
REMARK  295  A    between atoms: _713  and  _716
REMARK  296  A    between atoms: _716  and  _717
REMARK  297  A    between atoms: _722  and  _724
REMARK  298  A    between atoms: _724  and  _725
REMARK  299  A    between atoms: _724  and  _727
REMARK  300  A    between atoms: _727  and  _728
REMARK  301  A    between atoms: _734  and  _736
REMARK  302  A    between atoms: _736  and  _737
REMARK  303  A    between atoms: _736  and  _739
REMARK  304  A    between atoms: _739  and  _740
REMARK  305  A    between atoms: _742  and  _744
REMARK  306  A    between atoms: _744  and  _745
REMARK  307  A    between atoms: _747  and  _749
REMARK  308  A    between atoms: _749  and  _750
REMARK  309  A    between atoms: _749  and  _752
REMARK  310  A    between atoms: _752  and  _753
REMARK  311  A    between atoms: _758  and  _759
REMARK  312  A    between atoms: _761  and  _763
REMARK  313  A    between atoms: _763  and  _764
REMARK  314  A    between atoms: _763  and  _766
REMARK  315  A    between atoms: _766  and  _767
REMARK  316  A    between atoms: _772  and  _773
REMARK  317  A    between atoms: _775  and  _777
REMARK  318  A    between atoms: _777  and  _778
REMARK  319  A    between atoms: _777  and  _780
REMARK  320  A    between atoms: _780  and  _781
REMARK  321  A    between atoms: _785  and  ZN_876
REMARK  322  A    between atoms: _786  and  _788
REMARK  323  A    between atoms: _788  and  _789
REMARK  324  A    between atoms: _788  and  _791
REMARK  325  A    between atoms: _791  and  _792
REMARK  326  A    between atoms: _792  and  _793
REMARK  327  A    between atoms: _796  and  _798
REMARK  328  A    between atoms: _798  and  _799
REMARK  329  A    between atoms: _798  and  _801
REMARK  330  A    between atoms: _801  and  _802
REMARK  331  A    between atoms: _802  and  _803
REMARK  332  A    between atoms: _803  and  _804
REMARK  333  A    between atoms: _813  and  _815
REMARK  334  A    between atoms: _815  and  _816
REMARK  335  A    between atoms: _815  and  _818
REMARK  336  A    between atoms: _818  and  _819
REMARK  337  A    between atoms: _824  and  _825
REMARK  338  A    between atoms: _827  and  _829
REMARK  339  A    between atoms: _829  and  _830
REMARK  340  A    between atoms: _829  and  _832
REMARK  341  A    between atoms: _832  and  _833
REMARK  342  A    between atoms: _838  and  _840
REMARK  343  A    between atoms: _840  and  _841
REMARK  344  A    between atoms: _840  and  _843
REMARK  345  A    between atoms: _843  and  _844
REMARK  346  A    between atoms: _844  and  _845
REMARK  347  A    between atoms: _845  and  _846
REMARK  348  A    between atoms: _846  and  _847
REMARK  349  A    between atoms: _851  and  _853
REMARK  350  A    between atoms: _853  and  _854
REMARK  351  A    between atoms: _853  and  _856
REMARK  352  A    between atoms: _856  and  _857
REMARK  353  A    between atoms: _862  and  _863
REMARK  354  A    between atoms: _865  and  _867
REMARK  355  A    between atoms: _867  and  _868
REMARK  356  A    between atoms: _871  and  _873
REMARK  357  A    between atoms: _873  and  _874
REMARK                            x       y       z     vdW  Elec       q    Type
REMARK                         _______ _______ _______ _____ _____    ______ ____
ROOT
ATOM      1 ZN   UNK A   1      17.477  41.121  43.166  0.00  0.00    +0.000 Zn
ENDROOT
BRANCH   1   2
ATOM      2  N   UNK A   1      18.486  40.313  41.574  0.00  0.00    +0.000 N 
ATOM      3  C   UNK A   1      19.305  39.211  41.446  0.00  0.00    +0.000 A 
ATOM      4  C   UNK A   1      19.471  39.006  40.107  0.00  0.00    +0.000 A 
ATOM      5  N   UNK A   1      18.818  40.030  39.466  0.00  0.00    +0.000 NA
ATOM      6  C   UNK A   1      18.210  40.799  40.375  0.00  0.00    +0.000 A 
BRANCH   4   7
ATOM      7  C   UNK A   1      20.214  37.939  39.341  0.00  0.00    +0.000 C 
BRANCH   7   8
ATOM      8  C   UNK A   1      20.766  36.821  40.220  0.00  0.00    +0.000 C 
BRANCH   8   9
ATOM      9  N   UNK A   1      21.906  37.258  41.062  0.00  0.00    +0.000 N 
ATOM     10  H   UNK A   1      21.789  37.252  42.095  0.00  0.00    +0.000 HD
ATOM     11  C   UNK A   1      23.086  37.662  40.553  0.00  0.00    +0.000 C 
ATOM     12  O   UNK A   1      23.328  37.623  39.326  0.00  0.00    +0.000 OA
BRANCH  11  13
ATOM     13  C   UNK A   1      24.129  38.215  41.510  0.00  0.00    +0.000 C 
BRANCH  13  14
ATOM     14  N   UNK A   1      25.412  37.489  41.431  0.00  0.00    +0.000 NA
ATOM     15  H   UNK A   1      26.294  38.035  41.354  0.00  0.00    +0.000 HD
ENDBRANCH  13  14
BRANCH  13  16
ATOM     16  C   UNK A   1      24.485  39.673  41.224  0.00  0.00    +0.000 C 
BRANCH  16  17
ATOM     17  C   UNK A   1      23.300  40.616  41.040  0.00  0.00    +0.000 A 
ATOM     18  C   UNK A   1      22.365  40.855  42.076  0.00  0.00    +0.000 A 
ATOM     19  C   UNK A   1      21.289  41.767  41.835  0.00  0.00    +0.000 A 
ATOM     20  C   UNK A   1      21.188  42.404  40.605  0.00  0.00    +0.000 A 
ATOM     21  C   UNK A   1      22.096  42.198  39.604  0.00  0.00    +0.000 A 
ATOM     22  C   UNK A   1      23.130  41.262  39.813  0.00  0.00    +0.000 A 
BRANCH  20  23
ATOM     23  O   UNK A   1      20.099  43.282  40.372  0.00  0.00    +0.000 OA
ATOM     24  H   UNK A   1      19.534  43.327  41.183  0.00  0.00    +0.000 HD
ENDBRANCH  20  23
ENDBRANCH  16  17
ENDBRANCH  13  16
ENDBRANCH  11  13
ENDBRANCH   8   9
BRANCH   8  25
ATOM     25  C   UNK A   1      21.024  35.558  39.385  0.00  0.00    +0.000 C 
ATOM     26  O   UNK A   2      20.281  35.256  38.433  0.00  0.00    +0.000 OA
ENDBRANCH   8  25
ENDBRANCH   7   8
ENDBRANCH   4   7
ENDBRANCH   1   2
BRANCH   1  27
ATOM     27  O   UNK A   1      18.976  40.424  44.476  0.00  0.00    +0.000 OA
BRANCH  27  28
ATOM     28  C   UNK A   1      18.795  39.923  45.605  0.00  0.00    +0.000 C 
BRANCH  28  29
ATOM     29  O   UNK A   1      17.837  40.195  46.346  0.00  0.00    +0.000 OA
BRANCH  29  30
ATOM     30 ZN   UNK A   1      16.726  41.821  46.304  0.00  0.00    +0.000 Zn
BRANCH  30  33
ATOM     31  C   UNK A   1      12.929  41.281  47.887  0.00  0.00    +0.000 A 
ATOM     32  C   UNK A   1      14.088  41.983  47.700  0.00  0.00    +0.000 A 
ATOM     33  N   UNK A   1      14.886  41.253  46.847  0.00  0.00    +0.000 N 
ATOM     34  C   UNK A   1      14.205  40.189  46.443  0.00  0.00    +0.000 A 
ATOM     35  N   UNK A   1      13.009  40.203  47.049  0.00  0.00    +0.000 NA
BRANCH  31  36
ATOM     36  C   UNK A   1      11.606  41.620  48.544  0.00  0.00    +0.000 C 
BRANCH  36  37
ATOM     37  C   UNK A   1      11.498  41.255  50.047  0.00  0.00    +0.000 C 
BRANCH  37  38
ATOM     38  C   UNK A   1      11.877  39.802  50.326  0.00  0.00    +0.000 C 
ATOM     39  O   UNK A   1      12.945  39.500  50.958  0.00  0.00    +0.000 OA
ENDBRANCH  37  38
BRANCH  37  40
ATOM     40  N   UNK A   1      12.290  42.218  50.844  0.00  0.00    +0.000 NA
ATOM     41  H   UNK A   1      13.192  42.592  50.486  0.00  0.00    +0.000 HD
ENDBRANCH  37  40
ENDBRANCH  36  37
ENDBRANCH  31  36
ENDBRANCH  30  33
BRANCH  30  42
ATOM     42  O   UNK A   1      17.176  43.299  47.503  0.00  0.00    +0.000 OA
BRANCH  42  43
ATOM     43  C   UNK A   1      17.305  42.908  48.672  0.00  0.00    +0.000 C 
ATOM     44  O   UNK A   1      17.324  41.706  48.929  0.00  0.00    +0.000 OA
BRANCH  43  45
ATOM     45  C   UNK A   1      17.399  43.948  49.844  0.00  0.00    +0.000 C 
BRANCH  45  46
ATOM     46  C   UNK A   1      17.413  43.290  51.208  0.00  0.00    +0.000 C 
BRANCH  46  47
ATOM     47  C   UNK A   1      18.786  42.757  51.628  0.00  0.00    +0.000 C 
ATOM     48  O   UNK A   1      19.107  42.801  52.847  0.00  0.00    +0.000 OA
ATOM     49  N   UNK A   2      19.583  42.279  50.670  0.00  0.00    +0.000 N 
ATOM     50  H   UNK A   2      19.346  42.462  49.674  0.00  0.00    +0.000 HD
BRANCH  49  51
ATOM     51  C   UNK A   2      20.793  41.496  50.992  0.00  0.00    +0.000 C 
BRANCH  51  52
ATOM     52  C   UNK A   2      21.598  42.133  52.139  0.00  0.00    +0.000 C 
ATOM     53  N   UNK A   3      21.963  41.317  53.124  0.00  0.00    +0.000 N 
ATOM     54  H   UNK A   3      21.668  40.320  53.112  0.00  0.00    +0.000 HD
ATOM     55  O   UNK A   2      21.863  43.348  52.141  0.00  0.00    +0.000 OA
BRANCH  53  56
ATOM     56  C   UNK A   3      22.789  41.834  54.235  0.00  0.00    +0.000 C 
BRANCH  56  57
ATOM     57  C   UNK A   3      24.263  41.955  53.883  0.00  0.00    +0.000 C 
ATOM     58  O   UNK A   3      25.020  42.643  54.575  0.00  0.00    +0.000 OA
ATOM     59  N   PHE A   4      24.691  41.266  52.838  0.00  0.00    +0.000 N 
ATOM     60  H   PHE A   4      24.011  40.749  52.245  0.00  0.00    +0.000 HD
BRANCH  59  61
ATOM     61  CA  PHE A   4      26.116  41.229  52.514  0.00  0.00    +0.000 C 
BRANCH  61  62
ATOM     62  C   PHE A   4      26.262  41.287  50.995  0.00  0.00    +0.000 C 
ATOM     63  N   GLY A   5      27.277  41.980  50.496  0.00  0.00    +0.000 N 
ATOM     64  H   GLY A   5      27.809  42.629  51.110  0.00  0.00    +0.000 HD
ATOM     65  O   PHE A   4      25.453  40.708  50.272  0.00  0.00    +0.000 OA
BRANCH  63  66
ATOM     66  CA  GLY A   5      27.654  41.838  49.088  0.00  0.00    +0.000 C 
BRANCH  66  67
ATOM     67  C   GLY A   5      29.187  41.788  49.058  0.00  0.00    +0.000 C 
ATOM     68  O   GLY A   5      29.802  41.887  48.003  0.00  0.00    +0.000 OA
ENDBRANCH  66  67
BRANCH  66  69
ATOM     69  CB  GLY A   5      27.093  43.023  48.281  0.00  0.00    +0.000 C 
BRANCH  69  70
ATOM     70  CG  GLY A   5      27.711  44.389  48.726  0.00  0.00    +0.000 C 
BRANCH  70  71
ATOM     71  CD  GLY A   5      27.053  45.630  48.066  0.00  0.00    +0.000 C 
ATOM     72  OE2 GLY A   5      27.610  46.755  48.222  0.00  0.00    +0.000 OA
ATOM     73  OE1 GLY A   5      25.978  45.502  47.403  0.00  0.00    +0.000 OA
ENDBRANCH  70  71
ENDBRANCH  69  70
ENDBRANCH  66  69
ENDBRANCH  63  66
ENDBRANCH  61  62
BRANCH  61  74
ATOM     74  CB  PHE A   4      26.808  39.930  53.035  0.00  0.00    +0.000 C 
ATOM     75  CG2 PHE A   4      27.063  40.024  54.535  0.00  0.00    +0.000 C 
BRANCH  74  76
ATOM     76  CG1 PHE A   4      25.929  38.668  52.752  0.00  0.00    +0.000 C 
ATOM     77  CD1 PHE A   4      26.660  37.443  52.429  0.00  0.00    +0.000 C 
ENDBRANCH  74  76
ENDBRANCH  61  74
ENDBRANCH  59  61
ENDBRANCH  56  57
BRANCH  56  78
ATOM     78  C   UNK A   3      22.665  40.893  55.398  0.00  0.00    +0.000 C 
BRANCH  78  79
ATOM     79  O   UNK A   3      21.336  41.007  55.893  0.00  0.00    +0.000 OA
ATOM     80  H   UNK A   3      20.697  40.763  55.178  0.00  0.00    +0.000 HD
ENDBRANCH  78  79
ENDBRANCH  56  78
ENDBRANCH  53  56
ENDBRANCH  51  52
BRANCH  51  81
ATOM     81  C   UNK A   2      21.636  41.511  49.788  0.00  0.00    +0.000 C 
BRANCH  81  82
ATOM     82  O   UNK A   2      20.876  41.072  48.670  0.00  0.00    +0.000 OA
ATOM     83  H   UNK A   2      21.446  41.083  47.860  0.00  0.00    +0.000 HD
ENDBRANCH  81  82
ENDBRANCH  51  81
ENDBRANCH  49  51
ENDBRANCH  46  47
BRANCH  46  84
ATOM     84  N   UNK A   1      17.054  44.266  52.242  0.00  0.00    +0.000 NA
ATOM     85  H   UNK A   1      17.281  45.270  52.094  0.00  0.00    +0.000 HD
ENDBRANCH  46  84
ENDBRANCH  45  46
ENDBRANCH  43  45
ENDBRANCH  42  43
ENDBRANCH  30  42
ENDBRANCH  29  30
ENDBRANCH  28  29
BRANCH  28  86
ATOM     86  C   UNK A   1      19.812  38.987  46.148  0.00  0.00    +0.000 C 
BRANCH  86  87
ATOM     87  C   UNK A   1      19.404  38.335  47.471  0.00  0.00    +0.000 C 
BRANCH  87  88
ATOM     88  C   UNK A   1      18.096  37.529  47.315  0.00  0.00    +0.000 C 
ATOM     89  N   UNK A   3      17.153  37.627  48.249  0.00  0.00    +0.000 N 
ATOM     90  C   UNK A   3      17.110  38.533  49.415  0.00  0.00    +0.000 C 
ATOM     91  C   UNK A   3      15.646  39.023  49.408  0.00  0.00    +0.000 C 
ATOM     92  C   UNK A   3      14.900  37.728  49.020  0.00  0.00    +0.000 C 
ATOM     93  C   UNK A   3      15.787  37.075  47.967  0.00  0.00    +0.000 C 
ATOM     94  O   UNK A   2      17.954  36.854  46.296  0.00  0.00    +0.000 OA
BRANCH  90  95
ATOM     95  C   UNK A   3      17.292  37.796  50.710  0.00  0.00    +0.000 C 
ATOM     96  O   UNK A   3      17.155  38.424  51.771  0.00  0.00    +0.000 OA
ENDBRANCH  90  95
ENDBRANCH  87  88
BRANCH  87  97
ATOM     97  N   UNK A   1      20.469  37.382  47.792  0.00  0.00    +0.000 N 
ATOM     98  C   UNK A   1      20.981  37.342  49.020  0.00  0.00    +0.000 C 
ATOM     99  O   UNK A   1      20.477  37.898  49.996  0.00  0.00    +0.000 OA
ATOM    100  H   UNK A   1      20.826  36.736  47.059  0.00  0.00    +0.000 HD
BRANCH  98 101
ATOM    101  C   UNK A   1      22.249  36.502  49.189  0.00  0.00    +0.000 C 
BRANCH 101 102
ATOM    102  C   UNK A   1      23.455  37.135  48.474  0.00  0.00    +0.000 C 
ATOM    103  C   UNK A   1      23.544  38.641  48.741  0.00  0.00    +0.000 C 
BRANCH 102 104
ATOM    104  C   UNK A   1      24.736  36.391  48.956  0.00  0.00    +0.000 C 
ATOM    105  C   UNK A   1      25.997  36.791  48.127  0.00  0.00    +0.000 C 
ENDBRANCH 102 104
ENDBRANCH 101 102
BRANCH 101 106
ATOM    106  N   UNK A   1      21.955  35.153  48.669  0.00  0.00    +0.000 NA
ATOM    107  H   UNK A   1      21.986  34.945  47.651  0.00  0.00    +0.000 HD
ENDBRANCH 101 106
ENDBRANCH  98 101
ENDBRANCH  87  97
ENDBRANCH  86  87
ENDBRANCH  28  86
ENDBRANCH  27  28
ENDBRANCH   1  27
BRANCH   1 108
ATOM    108  O   UNK A   1      15.980  39.675  43.543  0.00  0.00    +0.000 OA
BRANCH 108 109
ATOM    109  C   UNK A   1      15.157  40.068  42.687  0.00  0.00    +0.000 C 
ATOM    110  O   UNK A   1      15.405  41.037  41.924  0.00  0.00    +0.000 OA
BRANCH 109 111
ATOM    111  C   UNK A   1      13.742  39.410  42.673  0.00  0.00    +0.000 C 
BRANCH 111 112
ATOM    112  C   UNK A   1      12.869  39.848  41.467  0.00  0.00    +0.000 C 
BRANCH 112 113
ATOM    113  C   UNK A   1      12.372  41.309  41.536  0.00  0.00    +0.000 C 
BRANCH 113 114
ATOM    114  N   UNK A   1      11.517  41.536  42.721  0.00  0.00    +0.000 N 
ATOM    115  H   UNK A   3      11.158  40.734  43.277  0.00  0.00    +0.000 HD
ATOM    116  C   UNK A   2      11.217  42.782  43.060  0.00  0.00    +0.000 C 
ATOM    117  O   UNK A   2      11.534  43.783  42.358  0.00  0.00    +0.000 OA
BRANCH 116 118
ATOM    118  C   UNK A   2      10.441  42.967  44.369  0.00  0.00    +0.000 C 
BRANCH 118 119
ATOM    119  N   UNK A   2       9.460  41.852  44.438  0.00  0.00    +0.000 N 
ATOM    120  H   UNK A   2       9.530  41.133  45.187  0.00  0.00    +0.000 HD
ATOM    121  C   UNK A   1       8.495  41.787  43.532  0.00  0.00    +0.000 C 
ATOM    122  O   UNK A   1       8.370  42.616  42.617  0.00  0.00    +0.000 OA
BRANCH 121 123
ATOM    123  C   UNK A   1       7.580  40.568  43.609  0.00  0.00    +0.000 C 
ATOM    124  C   UNK A   1       6.229  40.812  42.919  0.00  0.00    +0.000 C 
BRANCH 123 125
ATOM    125  N   UNK A   1       7.408  40.037  44.960  0.00  0.00    +0.000 NA
ATOM    126  H   UNK A   1       7.617  39.031  45.122  0.00  0.00    +0.000 HD
ENDBRANCH 123 125
ENDBRANCH 121 123
ENDBRANCH 118 119
BRANCH 118 127
ATOM    127  C   UNK A   2      11.387  42.941  45.564  0.00  0.00    +0.000 C 
BRANCH 127 128
ATOM    128  C   UNK A   2      12.382  44.151  45.538  0.00  0.00    +0.000 C 
BRANCH 128 129
ATOM    129  C   UNK A   2      13.691  43.908  44.760  0.00  0.00    +0.000 C 
ATOM    130  O   UNK A   2      14.486  44.878  44.685  0.00  0.00    +0.000 OA
ATOM    131  O   UNK A   2      13.902  42.817  44.196  0.00  0.00    +0.000 OA
ENDBRANCH 128 129
ENDBRANCH 127 128
ENDBRANCH 118 127
ENDBRANCH 116 118
ENDBRANCH 113 114
BRANCH 113 132
ATOM    132  C   UNK A   1      11.705  41.694  40.222  0.00  0.00    +0.000 C 
ATOM    133  N   PHE A   4      10.386  41.823  40.219  0.00  0.00    +0.000 N 
ATOM    134  H   PHE A   4       9.853  41.675  41.099  0.00  0.00    +0.000 HD
ATOM    135  O   UNK A   1      12.384  41.857  39.190  0.00  0.00    +0.000 OA
BRANCH 133 136
ATOM    136  CA  PHE A   4       9.678  42.169  39.000  0.00  0.00    +0.000 C 
BRANCH 136 137
ATOM    137  C   PHE A   4       9.301  43.648  38.943  0.00  0.00    +0.000 C 
ATOM    138  N   GLY A   5       9.955  44.454  39.778  0.00  0.00    +0.000 N 
ATOM    139  H   GLY A   5      10.608  44.052  40.480  0.00  0.00    +0.000 HD
ATOM    140  O   PHE A   4       8.420  44.010  38.152  0.00  0.00    +0.000 OA
BRANCH 138 141
ATOM    141  CA  GLY A   5       9.755  45.923  39.710  0.00  0.00    +0.000 C 
BRANCH 141 142
ATOM    142  C   GLY A   5       9.232  46.542  40.990  0.00  0.00    +0.000 C 
ATOM    143  N   LEU A   6       9.612  45.973  42.130  0.00  0.00    +0.000 N 
ATOM    144  H   LEU A   6      10.183  45.104  42.117  0.00  0.00    +0.000 HD
ATOM    145  O   GLY A   5       8.524  47.565  40.931  0.00  0.00    +0.000 OA
BRANCH 143 146
ATOM    146  CA  LEU A   6       9.216  46.585  43.417  0.00  0.00    +0.000 C 
BRANCH 146 147
ATOM    147  C   LEU A   6       7.665  46.542  43.559  0.00  0.00    +0.000 C 
ATOM    148  O   LEU A   6       7.046  47.442  44.122  0.00  0.00    +0.000 OA
ATOM    149  N   LEU A   7       7.084  45.454  43.078  0.00  0.00    +0.000 N 
ATOM    150  H   LEU A   7       7.630  44.600  42.845  0.00  0.00    +0.000 HD
BRANCH 149 151
ATOM    151  CA  LEU A   7       5.603  45.515  42.887  0.00  0.00    +0.000 C 
BRANCH 151 152
ATOM    152  C   LEU A   7       4.882  45.398  44.222  0.00  0.00    +0.000 C 
ATOM    153  O   LEU A   7       3.889  46.096  44.422  0.00  0.00    +0.000 OA
ENDBRANCH 151 152
BRANCH 151 154
ATOM    154  CB  LEU A   7       5.179  44.427  41.908  0.00  0.00    +0.000 C 
BRANCH 154 155
ATOM    155  CG  LEU A   7       5.841  44.475  40.517  0.00  0.00    +0.000 C 
ATOM    156  CD2 LEU A   7       5.721  45.819  39.827  0.00  0.00    +0.000 C 
ATOM    157  CD1 LEU A   7       5.163  43.388  39.642  0.00  0.00    +0.000 C 
ENDBRANCH 154 155
ENDBRANCH 151 154
ENDBRANCH 149 151
ENDBRANCH 146 147
BRANCH 146 158
ATOM    158  CB  LEU A   6       9.721  48.060  43.519  0.00  0.00    +0.000 C 
BRANCH 158 159
ATOM    159  CG  LEU A   6      11.161  48.327  43.009  0.00  0.00    +0.000 C 
ATOM    160  CD2 LEU A   6      12.163  47.398  43.742  0.00  0.00    +0.000 C 
ATOM    161  CD1 LEU A   6      11.502  49.820  43.163  0.00  0.00    +0.000 C 
ENDBRANCH 158 159
ENDBRANCH 146 158
ENDBRANCH 143 146
ENDBRANCH 141 142
ENDBRANCH 138 141
ENDBRANCH 136 137
BRANCH 136 162
ATOM    162  CB  PHE A   4       8.405  41.333  38.954  0.00  0.00    +0.000 C 
BRANCH 162 163
ATOM    163  CG  PHE A   4       8.675  39.885  38.621  0.00  0.00    +0.000 A 
ATOM    164  CD2 PHE A   4       9.027  38.954  39.644  0.00  0.00    +0.000 A 
ATOM    165  CE2 PHE A   4       9.279  37.594  39.348  0.00  0.00    +0.000 A 
ATOM    166  CZ  PHE A   4       9.146  37.146  37.999  0.00  0.00    +0.000 A 
ATOM    167  CE1 PHE A   4       8.783  38.070  36.962  0.00  0.00    +0.000 A 
ATOM    168  CD1 PHE A   4       8.560  39.456  37.301  0.00  0.00    +0.000 A 
ENDBRANCH 162 163
ENDBRANCH 136 162
ENDBRANCH 133 136
ENDBRANCH 113 132
ENDBRANCH 112 113
ENDBRANCH 111 112
ENDBRANCH 109 111
ENDBRANCH 108 109
ENDBRANCH   1 108
TORSDOF 79
REMARK  Name = ../refined-set-2016/2xei/2xei_pocket.pdb
REMARK  357 active torsions:
REMARK  status: ('A' for Active; 'I' for Inactive)
REMARK    1  A    between atoms: _1  and  _3
REMARK    2  A    between atoms: _3  and  _4
REMARK    3  A    between atoms: _7  and  _9
REMARK    4  A    between atoms: _9  and  _10
REMARK    5  A    between atoms: _9  and  _12
REMARK    6  A    between atoms: _12  and  _13
REMARK    7  A    between atoms: _19  and  _21
REMARK    8  A    between atoms: _21  and  _22
REMARK    9  A    between atoms: _24  and  _26
REMARK   10  A    between atoms: _26  and  _27
REMARK   11  A    between atoms: _26  and  _29
REMARK   12  A    between atoms: _29  and  _30
REMARK   13  A    between atoms: _30  and  _31
REMARK   14  A    between atoms: _31  and  _32
REMARK   15  A    between atoms: _32  and  _33
REMARK   16  A    between atoms: _37  and  _39
REMARK   17  A    between atoms: _39  and  _40
REMARK   18  A    between atoms: _39  and  _42
REMARK   19  A    between atoms: _45  and  _47
REMARK   20  A    between atoms: _47  and  _48
REMARK   21  A    between atoms: _47  and  _50
REMARK   22  A    between atoms: _50  and  _51
REMARK   23  A    between atoms: _57  and  _59
REMARK   24  A    between atoms: _59  and  _60
REMARK   25  A    between atoms: _59  and  _62
REMARK   26  A    between atoms: _62  and  _63
REMARK   27  A    between atoms: _63  and  _64
REMARK   28  A    between atoms: _64  and  _65
REMARK   29  A    between atoms: _74  and  _76
REMARK   30  A    between atoms: _76  and  _77
REMARK   31  A    between atoms: _79  and  _81
REMARK   32  A    between atoms: _81  and  _82
REMARK   33  A    between atoms: _81  and  _84
REMARK   34  A    between atoms: _84  and  _85
REMARK   35  A    between atoms: _90  and  _91
REMARK   36  A    between atoms: _93  and  _95
REMARK   37  A    between atoms: _95  and  _96
REMARK   38  A    between atoms: _95  and  _98
REMARK   39  A    between atoms: _98  and  _99
REMARK   40  A    between atoms: _99  and  _100
REMARK   41  A    between atoms: _105  and  _107
REMARK   42  A    between atoms: _107  and  _108
REMARK   43  A    between atoms: _107  and  _110
REMARK   44  A    between atoms: _110  and  _111
REMARK   45  A    between atoms: _111  and  _112
REMARK   46  A    between atoms: _112  and  _113
REMARK   47  A    between atoms: _122  and  _124
REMARK   48  A    between atoms: _124  and  _125
REMARK   49  A    between atoms: _127  and  _129
REMARK   50  A    between atoms: _129  and  _130
REMARK   51  A    between atoms: _129  and  _132
REMARK   52  A    between atoms: _132  and  _133
REMARK   53  A    between atoms: _138  and  _140
REMARK   54  A    between atoms: _140  and  _141
REMARK   55  A    between atoms: _140  and  _143
REMARK   56  A    between atoms: _143  and  _144
REMARK   57  A    between atoms: _147  and  _149
REMARK   58  A    between atoms: _149  and  _150
REMARK   59  A    between atoms: _149  and  _152
REMARK   60  A    between atoms: _152  and  _153
REMARK   61  A    between atoms: _156  and  _158
REMARK   62  A    between atoms: _158  and  _159
REMARK   63  A    between atoms: _158  and  _161
REMARK   64  A    between atoms: _161  and  _162
REMARK   65  A    between atoms: _167  and  _169
REMARK   66  A    between atoms: _169  and  _170
REMARK   67  A    between atoms: _169  and  _172
REMARK   68  A    between atoms: _172  and  _173
REMARK   69  A    between atoms: _176  and  _178
REMARK   70  A    between atoms: _178  and  _179
REMARK   71  A    between atoms: _178  and  _181
REMARK   72  A    between atoms: _181  and  _182
REMARK   73  A    between atoms: _187  and  _189
REMARK   74  A    between atoms: _189  and  _190
REMARK   75  A    between atoms: _192  and  _194
REMARK   76  A    between atoms: _194  and  _195
REMARK   77  A    between atoms: _194  and  _197
REMARK   78  A    between atoms: _197  and  _198
REMARK   79  A    between atoms: _202  and  ZN_877
REMARK   80  A    between atoms: _203  and  _205
REMARK   81  A    between atoms: _205  and  _206
REMARK   82  A    between atoms: _205  and  _208
REMARK   83  A    between atoms: _208  and  _209
REMARK   84  A    between atoms: _212  and  _214
REMARK   85  A    between atoms: _214  and  _215
REMARK   86  A    between atoms: _214  and  _217
REMARK   87  A    between atoms: _217  and  _218
REMARK   88  A    between atoms: _228  and  _230
REMARK   89  A    between atoms: _230  and  _231
REMARK   90  A    between atoms: _230  and  _233
REMARK   91  A    between atoms: _233  and  _234
REMARK   92  A    between atoms: _237  and  _239
REMARK   93  A    between atoms: _239  and  _240
REMARK   94  A    between atoms: _239  and  _242
REMARK   95  A    between atoms: _242  and  _243
REMARK   96  A    between atoms: _243  and  _244
REMARK   97  A    between atoms: _243  and  _245
REMARK   98  A    between atoms: _244  and  ZN_877
REMARK   99  A    between atoms: _245  and  ZN_876
REMARK  100  A    between atoms: _247  and  _248
REMARK  101  A    between atoms: _253  and  _255
REMARK  102  A    between atoms: _255  and  _256
REMARK  103  A    between atoms: _259  and  _261
REMARK  104  A    between atoms: _261  and  _262
REMARK  105  A    between atoms: _261  and  _264
REMARK  106  A    between atoms: _264  and  _265
REMARK  107  A    between atoms: _265  and  _266
REMARK  108  A    between atoms: _269  and  _271
REMARK  109  A    between atoms: _271  and  _272
REMARK  110  A    between atoms: _271  and  _274
REMARK  111  A    between atoms: _274  and  _275
REMARK  112  A    between atoms: _275  and  _276
REMARK  113  A    between atoms: _276  and  _278
REMARK  114  A    between atoms: _278  and  ZN_876
REMARK  115  A    between atoms: _279  and  _281
REMARK  116  A    between atoms: _281  and  _282
REMARK  117  A    between atoms: _281  and  _284
REMARK  118  A    between atoms: _284  and  _285
REMARK  119  A    between atoms: _291  and  _293
REMARK  120  A    between atoms: _293  and  _294
REMARK  121  A    between atoms: _296  and  _298
REMARK  122  A    between atoms: _298  and  _299
REMARK  123  A    between atoms: _298  and  _301
REMARK  124  A    between atoms: _301  and  _302
REMARK  125  A    between atoms: _305  and  _307
REMARK  126  A    between atoms: _307  and  _308
REMARK  127  A    between atoms: _307  and  _310
REMARK  128  A    between atoms: _310  and  _311
REMARK  129  A    between atoms: _314  and  _316
REMARK  130  A    between atoms: _316  and  _317
REMARK  131  A    between atoms: _316  and  _319
REMARK  132  A    between atoms: _319  and  _320
REMARK  133  A    between atoms: _325  and  _327
REMARK  134  A    between atoms: _327  and  _328
REMARK  135  A    between atoms: _327  and  _330
REMARK  136  A    between atoms: _330  and  _331
REMARK  137  A    between atoms: _331  and  _333
REMARK  138  A    between atoms: _333  and  ZN_877
REMARK  139  A    between atoms: _334  and  _336
REMARK  140  A    between atoms: _336  and  _337
REMARK  141  A    between atoms: _336  and  _339
REMARK  142  A    between atoms: _339  and  _340
REMARK  143  A    between atoms: _342  and  _344
REMARK  144  A    between atoms: _344  and  _345
REMARK  145  A    between atoms: _344  and  _347
REMARK  146  A    between atoms: _347  and  _348
REMARK  147  A    between atoms: _350  and  _352
REMARK  148  A    between atoms: _352  and  _353
REMARK  149  A    between atoms: _352  and  _355
REMARK  150  A    between atoms: _355  and  _356
REMARK  151  A    between atoms: _359  and  _361
REMARK  152  A    between atoms: _361  and  _362
REMARK  153  A    between atoms: _361  and  _364
REMARK  154  A    between atoms: _364  and  _365
REMARK  155  A    between atoms: _365  and  _366
REMARK  156  A    between atoms: _369  and  _371
REMARK  157  A    between atoms: _371  and  _372
REMARK  158  A    between atoms: _371  and  _374
REMARK  159  A    between atoms: _374  and  _375
REMARK  160  A    between atoms: _380  and  _381
REMARK  161  A    between atoms: _383  and  _385
REMARK  162  A    between atoms: _385  and  _386
REMARK  163  A    between atoms: _385  and  _388
REMARK  164  A    between atoms: _388  and  _389
REMARK  165  A    between atoms: _392  and  _394
REMARK  166  A    between atoms: _394  and  _395
REMARK  167  A    between atoms: _394  and  _397
REMARK  168  A    between atoms: _397  and  _398
REMARK  169  A    between atoms: _401  and  _403
REMARK  170  A    between atoms: _403  and  _404
REMARK  171  A    between atoms: _403  and  _406
REMARK  172  A    between atoms: _406  and  _407
REMARK  173  A    between atoms: _407  and  _408
REMARK  174  A    between atoms: _408  and  _409
REMARK  175  A    between atoms: _418  and  _420
REMARK  176  A    between atoms: _420  and  _421
REMARK  177  A    between atoms: _420  and  _423
REMARK  178  A    between atoms: _426  and  _428
REMARK  179  A    between atoms: _428  and  _429
REMARK  180  A    between atoms: _428  and  _431
REMARK  181  A    between atoms: _431  and  _432
REMARK  182  A    between atoms: _435  and  _437
REMARK  183  A    between atoms: _437  and  _438
REMARK  184  A    between atoms: _437  and  _440
REMARK  185  A    between atoms: _440  and  _441
REMARK  186  A    between atoms: _451  and  _453
REMARK  187  A    between atoms: _453  and  _454
REMARK  188  A    between atoms: _453  and  _456
REMARK  189  A    between atoms: _456  and  _457
REMARK  190  A    between atoms: _457  and  _458
REMARK  191  A    between atoms: _458  and  _459
REMARK  192  A    between atoms: _459  and  _460
REMARK  193  A    between atoms: _464  and  _466
REMARK  194  A    between atoms: _466  and  _467
REMARK  195  A    between atoms: _466  and  _469
REMARK  196  A    between atoms: _469  and  _470
REMARK  197  A    between atoms: _473  and  _474
REMARK  198  A    between atoms: _479  and  _481
REMARK  199  A    between atoms: _481  and  _482
REMARK  200  A    between atoms: _481  and  _484
REMARK  201  A    between atoms: _484  and  _485
REMARK  202  A    between atoms: _485  and  _486
REMARK  203  A    between atoms: _486  and  _487
REMARK  204  A    between atoms: _496  and  _498
REMARK  205  A    between atoms: _498  and  _499
REMARK  206  A    between atoms: _498  and  _501
REMARK  207  A    between atoms: _501  and  _502
REMARK  208  A    between atoms: _505  and  _507
REMARK  209  A    between atoms: _507  and  _508
REMARK  210  A    between atoms: _507  and  _510
REMARK  211  A    between atoms: _510  and  _511
REMARK  212  A    between atoms: _513  and  _515
REMARK  213  A    between atoms: _515  and  _516
REMARK  214  A    between atoms: _515  and  _518
REMARK  215  A    between atoms: _518  and  _519
REMARK  216  A    between atoms: _519  and  _520
REMARK  217  A    between atoms: _520  and  _521
REMARK  218  A    between atoms: _521  and  _522
REMARK  219  A    between atoms: _526  and  _528
REMARK  220  A    between atoms: _528  and  _529
REMARK  221  A    between atoms: _528  and  _531
REMARK  222  A    between atoms: _531  and  _532
REMARK  223  A    between atoms: _535  and  _537
REMARK  224  A    between atoms: _537  and  _538
REMARK  225  A    between atoms: _540  and  _542
REMARK  226  A    between atoms: _542  and  _543
REMARK  227  A    between atoms: _542  and  _545
REMARK  228  A    between atoms: _545  and  _546
REMARK  229  A    between atoms: _548  and  _550
REMARK  230  A    between atoms: _550  and  _551
REMARK  231  A    between atoms: _553  and  _555
REMARK  232  A    between atoms: _555  and  _556
REMARK  233  A    between atoms: _555  and  _558
REMARK  234  A    between atoms: _558  and  _559
REMARK  235  A    between atoms: _564  and  _566
REMARK  236  A    between atoms: _566  and  _567
REMARK  237  A    between atoms: _566  and  _569
REMARK  238  A    between atoms: _569  and  _570
REMARK  239  A    between atoms: _573  and  _575
REMARK  240  A    between atoms: _575  and  _576
REMARK  241  A    between atoms: _575  and  _578
REMARK  242  A    between atoms: _578  and  _579
REMARK  243  A    between atoms: _585  and  _587
REMARK  244  A    between atoms: _587  and  _588
REMARK  245  A    between atoms: _587  and  _590
REMARK  246  A    between atoms: _590  and  _591
REMARK  247  A    between atoms: _591  and  _592
REMARK  248  A    between atoms: _595  and  _597
REMARK  249  A    between atoms: _597  and  _598
REMARK  250  A    between atoms: _597  and  _600
REMARK  251  A    between atoms: _600  and  _601
REMARK  252  A    between atoms: _601  and  _602
REMARK  253  A    between atoms: _602  and  _603
REMARK  254  A    between atoms: _612  and  _614
REMARK  255  A    between atoms: _614  and  _615
REMARK  256  A    between atoms: _614  and  _617
REMARK  257  A    between atoms: _617  and  _618
REMARK  258  A    between atoms: _618  and  _619
REMARK  259  A    between atoms: _619  and  _620
REMARK  260  A    between atoms: _629  and  _631
REMARK  261  A    between atoms: _631  and  _632
REMARK  262  A    between atoms: _631  and  _634
REMARK  263  A    between atoms: _634  and  _635
REMARK  264  A    between atoms: _640  and  _641
REMARK  265  A    between atoms: _643  and  _645
REMARK  266  A    between atoms: _645  and  _646
REMARK  267  A    between atoms: _645  and  _648
REMARK  268  A    between atoms: _648  and  _649
REMARK  269  A    between atoms: _652  and  _654
REMARK  270  A    between atoms: _654  and  _655
REMARK  271  A    between atoms: _654  and  _657
REMARK  272  A    between atoms: _657  and  _658
REMARK  273  A    between atoms: _658  and  _659
REMARK  274  A    between atoms: _659  and  _660
REMARK  275  A    between atoms: _660  and  _661
REMARK  276  A    between atoms: _665  and  _667
REMARK  277  A    between atoms: _667  and  _668
REMARK  278  A    between atoms: _667  and  _670
REMARK  279  A    between atoms: _670  and  _671
REMARK  280  A    between atoms: _676  and  _678
REMARK  281  A    between atoms: _678  and  _679
REMARK  282  A    between atoms: _678  and  _681
REMARK  283  A    between atoms: _681  and  _682
REMARK  284  A    between atoms: _692  and  _694
REMARK  285  A    between atoms: _694  and  _695
REMARK  286  A    between atoms: _694  and  _697
REMARK  287  A    between atoms: _697  and  _698
REMARK  288  A    between atoms: _698  and  _699
REMARK  289  A    between atoms: _702  and  _704
REMARK  290  A    between atoms: _704  and  _705
REMARK  291  A    between atoms: _704  and  _707
REMARK  292  A    between atoms: _707  and  _708
REMARK  293  A    between atoms: _711  and  _713
REMARK  294  A    between atoms: _713  and  _714
REMARK  295  A    between atoms: _713  and  _716
REMARK  296  A    between atoms: _716  and  _717
REMARK  297  A    between atoms: _722  and  _724
REMARK  298  A    between atoms: _724  and  _725
REMARK  299  A    between atoms: _724  and  _727
REMARK  300  A    between atoms: _727  and  _728
REMARK  301  A    between atoms: _734  and  _736
REMARK  302  A    between atoms: _736  and  _737
REMARK  303  A    between atoms: _736  and  _739
REMARK  304  A    between atoms: _739  and  _740
REMARK  305  A    between atoms: _742  and  _744
REMARK  306  A    between atoms: _744  and  _745
REMARK  307  A    between atoms: _747  and  _749
REMARK  308  A    between atoms: _749  and  _750
REMARK  309  A    between atoms: _749  and  _752
REMARK  310  A    between atoms: _752  and  _753
REMARK  311  A    between atoms: _758  and  _759
REMARK  312  A    between atoms: _761  and  _763
REMARK  313  A    between atoms: _763  and  _764
REMARK  314  A    between atoms: _763  and  _766
REMARK  315  A    between atoms: _766  and  _767
REMARK  316  A    between atoms: _772  and  _773
REMARK  317  A    between atoms: _775  and  _777
REMARK  318  A    between atoms: _777  and  _778
REMARK  319  A    between atoms: _777  and  _780
REMARK  320  A    between atoms: _780  and  _781
REMARK  321  A    between atoms: _785  and  ZN_876
REMARK  322  A    between atoms: _786  and  _788
REMARK  323  A    between atoms: _788  and  _789
REMARK  324  A    between atoms: _788  and  _791
REMARK  325  A    between atoms: _791  and  _792
REMARK  326  A    between atoms: _792  and  _793
REMARK  327  A    between atoms: _796  and  _798
REMARK  328  A    between atoms: _798  and  _799
REMARK  329  A    between atoms: _798  and  _801
REMARK  330  A    between atoms: _801  and  _802
REMARK  331  A    between atoms: _802  and  _803
REMARK  332  A    between atoms: _803  and  _804
REMARK  333  A    between atoms: _813  and  _815
REMARK  334  A    between atoms: _815  and  _816
REMARK  335  A    between atoms: _815  and  _818
REMARK  336  A    between atoms: _818  and  _819
REMARK  337  A    between atoms: _824  and  _825
REMARK  338  A    between atoms: _827  and  _829
REMARK  339  A    between atoms: _829  and  _830
REMARK  340  A    between atoms: _829  and  _832
REMARK  341  A    between atoms: _832  and  _833
REMARK  342  A    between atoms: _838  and  _840
REMARK  343  A    between atoms: _840  and  _841
REMARK  344  A    between atoms: _840  and  _843
REMARK  345  A    between atoms: _843  and  _844
REMARK  346  A    between atoms: _844  and  _845
REMARK  347  A    between atoms: _845  and  _846
REMARK  348  A    between atoms: _846  and  _847
REMARK  349  A    between atoms: _851  and  _853
REMARK  350  A    between atoms: _853  and  _854
REMARK  351  A    between atoms: _853  and  _856
REMARK  352  A    between atoms: _856  and  _857
REMARK  353  A    between atoms: _862  and  _863
REMARK  354  A    between atoms: _865  and  _867
REMARK  355  A    between atoms: _867  and  _868
REMARK  356  A    between atoms: _871  and  _873
REMARK  357  A    between atoms: _873  and  _874
REMARK                            x       y       z     vdW  Elec       q    Type
REMARK                         _______ _______ _______ _____ _____    ______ ____
ROOT
ATOM      1  CA  ASP A   1      10.754  36.582  46.405  0.00  0.00    +0.144 C 
ENDROOT
BRANCH   1   2
ATOM      2  N   ASP A   1      10.687  37.290  47.720  0.00  0.00    -0.239 NA
ATOM      3  H   ASP A   1      10.232  38.223  47.788  0.00  0.00    +0.142 HD
ENDBRANCH   1   2
BRANCH   1   4
ATOM      4  C   ASP A   1      12.210  36.585  45.917  0.00  0.00    +0.225 C 
ATOM      5  O   ASP A   1      12.902  37.579  46.104  0.00  0.00    -0.287 OA
ENDBRANCH   1   4
BRANCH   1   6
ATOM      6  CB  ASP A   1       9.863  37.274  45.369  0.00  0.00    +0.139 C 
BRANCH   6   7
ATOM      7  CG  ASP A   1      10.322  38.683  45.043  0.00  0.00    +0.367 C 
ATOM      8  OD2 ASP A   1      10.375  39.559  45.979  0.00  0.00    -0.246 OA
ATOM      9  OD1 ASP A   1      10.534  38.962  43.831  0.00  0.00    -0.246 OA
ENDBRANCH   6   7
ENDBRANCH   1   6
TORSDOF 4
REMARK  Name = ../refined-set-2016/2xei/2xei_pocket.pdb
REMARK  357 active torsions:
REMARK  status: ('A' for Active; 'I' for Inactive)
REMARK    1  A    between atoms: _1  and  _3
REMARK    2  A    between atoms: _3  and  _4
REMARK    3  A    between atoms: _7  and  _9
REMARK    4  A    between atoms: _9  and  _10
REMARK    5  A    between atoms: _9  and  _12
REMARK    6  A    between atoms: _12  and  _13
REMARK    7  A    between atoms: _19  and  _21
REMARK    8  A    between atoms: _21  and  _22
REMARK    9  A    between atoms: _24  and  _26
REMARK   10  A    between atoms: _26  and  _27
REMARK   11  A    between atoms: _26  and  _29
REMARK   12  A    between atoms: _29  and  _30
REMARK   13  A    between atoms: _30  and  _31
REMARK   14  A    between atoms: _31  and  _32
REMARK   15  A    between atoms: _32  and  _33
REMARK   16  A    between atoms: _37  and  _39
REMARK   17  A    between atoms: _39  and  _40
REMARK   18  A    between atoms: _39  and  _42
REMARK   19  A    between atoms: _45  and  _47
REMARK   20  A    between atoms: _47  and  _48
REMARK   21  A    between atoms: _47  and  _50
REMARK   22  A    between atoms: _50  and  _51
REMARK   23  A    between atoms: _57  and  _59
REMARK   24  A    between atoms: _59  and  _60
REMARK   25  A    between atoms: _59  and  _62
REMARK   26  A    between atoms: _62  and  _63
REMARK   27  A    between atoms: _63  and  _64
REMARK   28  A    between atoms: _64  and  _65
REMARK   29  A    between atoms: _74  and  _76
REMARK   30  A    between atoms: _76  and  _77
REMARK   31  A    between atoms: _79  and  _81
REMARK   32  A    between atoms: _81  and  _82
REMARK   33  A    between atoms: _81  and  _84
REMARK   34  A    between atoms: _84  and  _85
REMARK   35  A    between atoms: _90  and  _91
REMARK   36  A    between atoms: _93  and  _95
REMARK   37  A    between atoms: _95  and  _96
REMARK   38  A    between atoms: _95  and  _98
REMARK   39  A    between atoms: _98  and  _99
REMARK   40  A    between atoms: _99  and  _100
REMARK   41  A    between atoms: _105  and  _107
REMARK   42  A    between atoms: _107  and  _108
REMARK   43  A    between atoms: _107  and  _110
REMARK   44  A    between atoms: _110  and  _111
REMARK   45  A    between atoms: _111  and  _112
REMARK   46  A    between atoms: _112  and  _113
REMARK   47  A    between atoms: _122  and  _124
REMARK   48  A    between atoms: _124  and  _125
REMARK   49  A    between atoms: _127  and  _129
REMARK   50  A    between atoms: _129  and  _130
REMARK   51  A    between atoms: _129  and  _132
REMARK   52  A    between atoms: _132  and  _133
REMARK   53  A    between atoms: _138  and  _140
REMARK   54  A    between atoms: _140  and  _141
REMARK   55  A    between atoms: _140  and  _143
REMARK   56  A    between atoms: _143  and  _144
REMARK   57  A    between atoms: _147  and  _149
REMARK   58  A    between atoms: _149  and  _150
REMARK   59  A    between atoms: _149  and  _152
REMARK   60  A    between atoms: _152  and  _153
REMARK   61  A    between atoms: _156  and  _158
REMARK   62  A    between atoms: _158  and  _159
REMARK   63  A    between atoms: _158  and  _161
REMARK   64  A    between atoms: _161  and  _162
REMARK   65  A    between atoms: _167  and  _169
REMARK   66  A    between atoms: _169  and  _170
REMARK   67  A    between atoms: _169  and  _172
REMARK   68  A    between atoms: _172  and  _173
REMARK   69  A    between atoms: _176  and  _178
REMARK   70  A    between atoms: _178  and  _179
REMARK   71  A    between atoms: _178  and  _181
REMARK   72  A    between atoms: _181  and  _182
REMARK   73  A    between atoms: _187  and  _189
REMARK   74  A    between atoms: _189  and  _190
REMARK   75  A    between atoms: _192  and  _194
REMARK   76  A    between atoms: _194  and  _195
REMARK   77  A    between atoms: _194  and  _197
REMARK   78  A    between atoms: _197  and  _198
REMARK   79  A    between atoms: _202  and  ZN_877
REMARK   80  A    between atoms: _203  and  _205
REMARK   81  A    between atoms: _205  and  _206
REMARK   82  A    between atoms: _205  and  _208
REMARK   83  A    between atoms: _208  and  _209
REMARK   84  A    between atoms: _212  and  _214
REMARK   85  A    between atoms: _214  and  _215
REMARK   86  A    between atoms: _214  and  _217
REMARK   87  A    between atoms: _217  and  _218
REMARK   88  A    between atoms: _228  and  _230
REMARK   89  A    between atoms: _230  and  _231
REMARK   90  A    between atoms: _230  and  _233
REMARK   91  A    between atoms: _233  and  _234
REMARK   92  A    between atoms: _237  and  _239
REMARK   93  A    between atoms: _239  and  _240
REMARK   94  A    between atoms: _239  and  _242
REMARK   95  A    between atoms: _242  and  _243
REMARK   96  A    between atoms: _243  and  _244
REMARK   97  A    between atoms: _243  and  _245
REMARK   98  A    between atoms: _244  and  ZN_877
REMARK   99  A    between atoms: _245  and  ZN_876
REMARK  100  A    between atoms: _247  and  _248
REMARK  101  A    between atoms: _253  and  _255
REMARK  102  A    between atoms: _255  and  _256
REMARK  103  A    between atoms: _259  and  _261
REMARK  104  A    between atoms: _261  and  _262
REMARK  105  A    between atoms: _261  and  _264
REMARK  106  A    between atoms: _264  and  _265
REMARK  107  A    between atoms: _265  and  _266
REMARK  108  A    between atoms: _269  and  _271
REMARK  109  A    between atoms: _271  and  _272
REMARK  110  A    between atoms: _271  and  _274
REMARK  111  A    between atoms: _274  and  _275
REMARK  112  A    between atoms: _275  and  _276
REMARK  113  A    between atoms: _276  and  _278
REMARK  114  A    between atoms: _278  and  ZN_876
REMARK  115  A    between atoms: _279  and  _281
REMARK  116  A    between atoms: _281  and  _282
REMARK  117  A    between atoms: _281  and  _284
REMARK  118  A    between atoms: _284  and  _285
REMARK  119  A    between atoms: _291  and  _293
REMARK  120  A    between atoms: _293  and  _294
REMARK  121  A    between atoms: _296  and  _298
REMARK  122  A    between atoms: _298  and  _299
REMARK  123  A    between atoms: _298  and  _301
REMARK  124  A    between atoms: _301  and  _302
REMARK  125  A    between atoms: _305  and  _307
REMARK  126  A    between atoms: _307  and  _308
REMARK  127  A    between atoms: _307  and  _310
REMARK  128  A    between atoms: _310  and  _311
REMARK  129  A    between atoms: _314  and  _316
REMARK  130  A    between atoms: _316  and  _317
REMARK  131  A    between atoms: _316  and  _319
REMARK  132  A    between atoms: _319  and  _320
REMARK  133  A    between atoms: _325  and  _327
REMARK  134  A    between atoms: _327  and  _328
REMARK  135  A    between atoms: _327  and  _330
REMARK  136  A    between atoms: _330  and  _331
REMARK  137  A    between atoms: _331  and  _333
REMARK  138  A    between atoms: _333  and  ZN_877
REMARK  139  A    between atoms: _334  and  _336
REMARK  140  A    between atoms: _336  and  _337
REMARK  141  A    between atoms: _336  and  _339
REMARK  142  A    between atoms: _339  and  _340
REMARK  143  A    between atoms: _342  and  _344
REMARK  144  A    between atoms: _344  and  _345
REMARK  145  A    between atoms: _344  and  _347
REMARK  146  A    between atoms: _347  and  _348
REMARK  147  A    between atoms: _350  and  _352
REMARK  148  A    between atoms: _352  and  _353
REMARK  149  A    between atoms: _352  and  _355
REMARK  150  A    between atoms: _355  and  _356
REMARK  151  A    between atoms: _359  and  _361
REMARK  152  A    between atoms: _361  and  _362
REMARK  153  A    between atoms: _361  and  _364
REMARK  154  A    between atoms: _364  and  _365
REMARK  155  A    between atoms: _365  and  _366
REMARK  156  A    between atoms: _369  and  _371
REMARK  157  A    between atoms: _371  and  _372
REMARK  158  A    between atoms: _371  and  _374
REMARK  159  A    between atoms: _374  and  _375
REMARK  160  A    between atoms: _380  and  _381
REMARK  161  A    between atoms: _383  and  _385
REMARK  162  A    between atoms: _385  and  _386
REMARK  163  A    between atoms: _385  and  _388
REMARK  164  A    between atoms: _388  and  _389
REMARK  165  A    between atoms: _392  and  _394
REMARK  166  A    between atoms: _394  and  _395
REMARK  167  A    between atoms: _394  and  _397
REMARK  168  A    between atoms: _397  and  _398
REMARK  169  A    between atoms: _401  and  _403
REMARK  170  A    between atoms: _403  and  _404
REMARK  171  A    between atoms: _403  and  _406
REMARK  172  A    between atoms: _406  and  _407
REMARK  173  A    between atoms: _407  and  _408
REMARK  174  A    between atoms: _408  and  _409
REMARK  175  A    between atoms: _418  and  _420
REMARK  176  A    between atoms: _420  and  _421
REMARK  177  A    between atoms: _420  and  _423
REMARK  178  A    between atoms: _426  and  _428
REMARK  179  A    between atoms: _428  and  _429
REMARK  180  A    between atoms: _428  and  _431
REMARK  181  A    between atoms: _431  and  _432
REMARK  182  A    between atoms: _435  and  _437
REMARK  183  A    between atoms: _437  and  _438
REMARK  184  A    between atoms: _437  and  _440
REMARK  185  A    between atoms: _440  and  _441
REMARK  186  A    between atoms: _451  and  _453
REMARK  187  A    between atoms: _453  and  _454
REMARK  188  A    between atoms: _453  and  _456
REMARK  189  A    between atoms: _456  and  _457
REMARK  190  A    between atoms: _457  and  _458
REMARK  191  A    between atoms: _458  and  _459
REMARK  192  A    between atoms: _459  and  _460
REMARK  193  A    between atoms: _464  and  _466
REMARK  194  A    between atoms: _466  and  _467
REMARK  195  A    between atoms: _466  and  _469
REMARK  196  A    between atoms: _469  and  _470
REMARK  197  A    between atoms: _473  and  _474
REMARK  198  A    between atoms: _479  and  _481
REMARK  199  A    between atoms: _481  and  _482
REMARK  200  A    between atoms: _481  and  _484
REMARK  201  A    between atoms: _484  and  _485
REMARK  202  A    between atoms: _485  and  _486
REMARK  203  A    between atoms: _486  and  _487
REMARK  204  A    between atoms: _496  and  _498
REMARK  205  A    between atoms: _498  and  _499
REMARK  206  A    between atoms: _498  and  _501
REMARK  207  A    between atoms: _501  and  _502
REMARK  208  A    between atoms: _505  and  _507
REMARK  209  A    between atoms: _507  and  _508
REMARK  210  A    between atoms: _507  and  _510
REMARK  211  A    between atoms: _510  and  _511
REMARK  212  A    between atoms: _513  and  _515
REMARK  213  A    between atoms: _515  and  _516
REMARK  214  A    between atoms: _515  and  _518
REMARK  215  A    between atoms: _518  and  _519
REMARK  216  A    between atoms: _519  and  _520
REMARK  217  A    between atoms: _520  and  _521
REMARK  218  A    between atoms: _521  and  _522
REMARK  219  A    between atoms: _526  and  _528
REMARK  220  A    between atoms: _528  and  _529
REMARK  221  A    between atoms: _528  and  _531
REMARK  222  A    between atoms: _531  and  _532
REMARK  223  A    between atoms: _535  and  _537
REMARK  224  A    between atoms: _537  and  _538
REMARK  225  A    between atoms: _540  and  _542
REMARK  226  A    between atoms: _542  and  _543
REMARK  227  A    between atoms: _542  and  _545
REMARK  228  A    between atoms: _545  and  _546
REMARK  229  A    between atoms: _548  and  _550
REMARK  230  A    between atoms: _550  and  _551
REMARK  231  A    between atoms: _553  and  _555
REMARK  232  A    between atoms: _555  and  _556
REMARK  233  A    between atoms: _555  and  _558
REMARK  234  A    between atoms: _558  and  _559
REMARK  235  A    between atoms: _564  and  _566
REMARK  236  A    between atoms: _566  and  _567
REMARK  237  A    between atoms: _566  and  _569
REMARK  238  A    between atoms: _569  and  _570
REMARK  239  A    between atoms: _573  and  _575
REMARK  240  A    between atoms: _575  and  _576
REMARK  241  A    between atoms: _575  and  _578
REMARK  242  A    between atoms: _578  and  _579
REMARK  243  A    between atoms: _585  and  _587
REMARK  244  A    between atoms: _587  and  _588
REMARK  245  A    between atoms: _587  and  _590
REMARK  246  A    between atoms: _590  and  _591
REMARK  247  A    between atoms: _591  and  _592
REMARK  248  A    between atoms: _595  and  _597
REMARK  249  A    between atoms: _597  and  _598
REMARK  250  A    between atoms: _597  and  _600
REMARK  251  A    between atoms: _600  and  _601
REMARK  252  A    between atoms: _601  and  _602
REMARK  253  A    between atoms: _602  and  _603
REMARK  254  A    between atoms: _612  and  _614
REMARK  255  A    between atoms: _614  and  _615
REMARK  256  A    between atoms: _614  and  _617
REMARK  257  A    between atoms: _617  and  _618
REMARK  258  A    between atoms: _618  and  _619
REMARK  259  A    between atoms: _619  and  _620
REMARK  260  A    between atoms: _629  and  _631
REMARK  261  A    between atoms: _631  and  _632
REMARK  262  A    between atoms: _631  and  _634
REMARK  263  A    between atoms: _634  and  _635
REMARK  264  A    between atoms: _640  and  _641
REMARK  265  A    between atoms: _643  and  _645
REMARK  266  A    between atoms: _645  and  _646
REMARK  267  A    between atoms: _645  and  _648
REMARK  268  A    between atoms: _648  and  _649
REMARK  269  A    between atoms: _652  and  _654
REMARK  270  A    between atoms: _654  and  _655
REMARK  271  A    between atoms: _654  and  _657
REMARK  272  A    between atoms: _657  and  _658
REMARK  273  A    between atoms: _658  and  _659
REMARK  274  A    between atoms: _659  and  _660
REMARK  275  A    between atoms: _660  and  _661
REMARK  276  A    between atoms: _665  and  _667
REMARK  277  A    between atoms: _667  and  _668
REMARK  278  A    between atoms: _667  and  _670
REMARK  279  A    between atoms: _670  and  _671
REMARK  280  A    between atoms: _676  and  _678
REMARK  281  A    between atoms: _678  and  _679
REMARK  282  A    between atoms: _678  and  _681
REMARK  283  A    between atoms: _681  and  _682
REMARK  284  A    between atoms: _692  and  _694
REMARK  285  A    between atoms: _694  and  _695
REMARK  286  A    between atoms: _694  and  _697
REMARK  287  A    between atoms: _697  and  _698
REMARK  288  A    between atoms: _698  and  _699
REMARK  289  A    between atoms: _702  and  _704
REMARK  290  A    between atoms: _704  and  _705
REMARK  291  A    between atoms: _704  and  _707
REMARK  292  A    between atoms: _707  and  _708
REMARK  293  A    between atoms: _711  and  _713
REMARK  294  A    between atoms: _713  and  _714
REMARK  295  A    between atoms: _713  and  _716
REMARK  296  A    between atoms: _716  and  _717
REMARK  297  A    between atoms: _722  and  _724
REMARK  298  A    between atoms: _724  and  _725
REMARK  299  A    between atoms: _724  and  _727
REMARK  300  A    between atoms: _727  and  _728
REMARK  301  A    between atoms: _734  and  _736
REMARK  302  A    between atoms: _736  and  _737
REMARK  303  A    between atoms: _736  and  _739
REMARK  304  A    between atoms: _739  and  _740
REMARK  305  A    between atoms: _742  and  _744
REMARK  306  A    between atoms: _744  and  _745
REMARK  307  A    between atoms: _747  and  _749
REMARK  308  A    between atoms: _749  and  _750
REMARK  309  A    between atoms: _749  and  _752
REMARK  310  A    between atoms: _752  and  _753
REMARK  311  A    between atoms: _758  and  _759
REMARK  312  A    between atoms: _761  and  _763
REMARK  313  A    between atoms: _763  and  _764
REMARK  314  A    between atoms: _763  and  _766
REMARK  315  A    between atoms: _766  and  _767
REMARK  316  A    between atoms: _772  and  _773
REMARK  317  A    between atoms: _775  and  _777
REMARK  318  A    between atoms: _777  and  _778
REMARK  319  A    between atoms: _777  and  _780
REMARK  320  A    between atoms: _780  and  _781
REMARK  321  A    between atoms: _785  and  ZN_876
REMARK  322  A    between atoms: _786  and  _788
REMARK  323  A    between atoms: _788  and  _789
REMARK  324  A    between atoms: _788  and  _791
REMARK  325  A    between atoms: _791  and  _792
REMARK  326  A    between atoms: _792  and  _793
REMARK  327  A    between atoms: _796  and  _798
REMARK  328  A    between atoms: _798  and  _799
REMARK  329  A    between atoms: _798  and  _801
REMARK  330  A    between atoms: _801  and  _802
REMARK  331  A    between atoms: _802  and  _803
REMARK  332  A    between atoms: _803  and  _804
REMARK  333  A    between atoms: _813  and  _815
REMARK  334  A    between atoms: _815  and  _816
REMARK  335  A    between atoms: _815  and  _818
REMARK  336  A    between atoms: _818  and  _819
REMARK  337  A    between atoms: _824  and  _825
REMARK  338  A    between atoms: _827  and  _829
REMARK  339  A    between atoms: _829  and  _830
REMARK  340  A    between atoms: _829  and  _832
REMARK  341  A    between atoms: _832  and  _833
REMARK  342  A    between atoms: _838  and  _840
REMARK  343  A    between atoms: _840  and  _841
REMARK  344  A    between atoms: _840  and  _843
REMARK  345  A    between atoms: _843  and  _844
REMARK  346  A    between atoms: _844  and  _845
REMARK  347  A    between atoms: _845  and  _846
REMARK  348  A    between atoms: _846  and  _847
REMARK  349  A    between atoms: _851  and  _853
REMARK  350  A    between atoms: _853  and  _854
REMARK  351  A    between atoms: _853  and  _856
REMARK  352  A    between atoms: _856  and  _857
REMARK  353  A    between atoms: _862  and  _863
REMARK  354  A    between atoms: _865  and  _867
REMARK  355  A    between atoms: _867  and  _868
REMARK  356  A    between atoms: _871  and  _873
REMARK  357  A    between atoms: _873  and  _874
REMARK                            x       y       z     vdW  Elec       q    Type
REMARK                         _______ _______ _______ _____ _____    ______ ____
ROOT
ATOM      1  CG  TRP A   1      15.744  36.604  39.785  0.00  0.00    -0.002 A 
ATOM      2  CD1 TRP A   1      16.262  37.844  40.088  0.00  0.00    +0.068 A 
ATOM      3  NE1 TRP A   1      15.515  38.831  39.449  0.00  0.00    -0.352 N 
ATOM      4  HE1 TRP A   1      15.675  39.856  39.518  0.00  0.00    +0.166 HD
ATOM      5  CE2 TRP A   1      14.526  38.214  38.708  0.00  0.00    +0.056 A 
ATOM      6  CZ2 TRP A   1      13.512  38.774  37.912  0.00  0.00    +0.017 A 
ATOM      7  CH2 TRP A   1      12.608  37.914  37.314  0.00  0.00    +0.001 A 
ATOM      8  CZ3 TRP A   1      12.686  36.501  37.497  0.00  0.00    +0.000 A 
ATOM      9  CE3 TRP A   1      13.706  35.941  38.286  0.00  0.00    +0.001 A 
ATOM     10  CD2 TRP A   1      14.633  36.822  38.926  0.00  0.00    +0.013 A 
ENDROOT
BRANCH   1  11
ATOM     11  CB  TRP A   1      16.170  35.269  40.327  0.00  0.00    +0.053 C 
BRANCH  11  12
ATOM     12  CA  TRP A   1      15.051  34.615  41.156  0.00  0.00    +0.137 C 
BRANCH  12  13
ATOM     13  N   TRP A   1      14.999  35.170  42.529  0.00  0.00    -0.239 NA
ATOM     14  H   TRP A   1      15.813  35.696  42.905  0.00  0.00    +0.142 HD
ENDBRANCH  12  13
BRANCH  12  15
ATOM     15  C   TRP A   1      15.191  33.106  41.193  0.00  0.00    +0.224 C 
ATOM     16  O   TRP A   1      14.430  32.377  40.562  0.00  0.00    -0.287 OA
ENDBRANCH  12  15
ENDBRANCH  11  12
ENDBRANCH   1  11
TORSDOF 4
REMARK  Name = ../refined-set-2016/2xei/2xei_pocket.pdb
REMARK  357 active torsions:
REMARK  status: ('A' for Active; 'I' for Inactive)
REMARK    1  A    between atoms: _1  and  _3
REMARK    2  A    between atoms: _3  and  _4
REMARK    3  A    between atoms: _7  and  _9
REMARK    4  A    between atoms: _9  and  _10
REMARK    5  A    between atoms: _9  and  _12
REMARK    6  A    between atoms: _12  and  _13
REMARK    7  A    between atoms: _19  and  _21
REMARK    8  A    between atoms: _21  and  _22
REMARK    9  A    between atoms: _24  and  _26
REMARK   10  A    between atoms: _26  and  _27
REMARK   11  A    between atoms: _26  and  _29
REMARK   12  A    between atoms: _29  and  _30
REMARK   13  A    between atoms: _30  and  _31
REMARK   14  A    between atoms: _31  and  _32
REMARK   15  A    between atoms: _32  and  _33
REMARK   16  A    between atoms: _37  and  _39
REMARK   17  A    between atoms: _39  and  _40
REMARK   18  A    between atoms: _39  and  _42
REMARK   19  A    between atoms: _45  and  _47
REMARK   20  A    between atoms: _47  and  _48
REMARK   21  A    between atoms: _47  and  _50
REMARK   22  A    between atoms: _50  and  _51
REMARK   23  A    between atoms: _57  and  _59
REMARK   24  A    between atoms: _59  and  _60
REMARK   25  A    between atoms: _59  and  _62
REMARK   26  A    between atoms: _62  and  _63
REMARK   27  A    between atoms: _63  and  _64
REMARK   28  A    between atoms: _64  and  _65
REMARK   29  A    between atoms: _74  and  _76
REMARK   30  A    between atoms: _76  and  _77
REMARK   31  A    between atoms: _79  and  _81
REMARK   32  A    between atoms: _81  and  _82
REMARK   33  A    between atoms: _81  and  _84
REMARK   34  A    between atoms: _84  and  _85
REMARK   35  A    between atoms: _90  and  _91
REMARK   36  A    between atoms: _93  and  _95
REMARK   37  A    between atoms: _95  and  _96
REMARK   38  A    between atoms: _95  and  _98
REMARK   39  A    between atoms: _98  and  _99
REMARK   40  A    between atoms: _99  and  _100
REMARK   41  A    between atoms: _105  and  _107
REMARK   42  A    between atoms: _107  and  _108
REMARK   43  A    between atoms: _107  and  _110
REMARK   44  A    between atoms: _110  and  _111
REMARK   45  A    between atoms: _111  and  _112
REMARK   46  A    between atoms: _112  and  _113
REMARK   47  A    between atoms: _122  and  _124
REMARK   48  A    between atoms: _124  and  _125
REMARK   49  A    between atoms: _127  and  _129
REMARK   50  A    between atoms: _129  and  _130
REMARK   51  A    between atoms: _129  and  _132
REMARK   52  A    between atoms: _132  and  _133
REMARK   53  A    between atoms: _138  and  _140
REMARK   54  A    between atoms: _140  and  _141
REMARK   55  A    between atoms: _140  and  _143
REMARK   56  A    between atoms: _143  and  _144
REMARK   57  A    between atoms: _147  and  _149
REMARK   58  A    between atoms: _149  and  _150
REMARK   59  A    between atoms: _149  and  _152
REMARK   60  A    between atoms: _152  and  _153
REMARK   61  A    between atoms: _156  and  _158
REMARK   62  A    between atoms: _158  and  _159
REMARK   63  A    between atoms: _158  and  _161
REMARK   64  A    between atoms: _161  and  _162
REMARK   65  A    between atoms: _167  and  _169
REMARK   66  A    between atoms: _169  and  _170
REMARK   67  A    between atoms: _169  and  _172
REMARK   68  A    between atoms: _172  and  _173
REMARK   69  A    between atoms: _176  and  _178
REMARK   70  A    between atoms: _178  and  _179
REMARK   71  A    between atoms: _178  and  _181
REMARK   72  A    between atoms: _181  and  _182
REMARK   73  A    between atoms: _187  and  _189
REMARK   74  A    between atoms: _189  and  _190
REMARK   75  A    between atoms: _192  and  _194
REMARK   76  A    between atoms: _194  and  _195
REMARK   77  A    between atoms: _194  and  _197
REMARK   78  A    between atoms: _197  and  _198
REMARK   79  A    between atoms: _202  and  ZN_877
REMARK   80  A    between atoms: _203  and  _205
REMARK   81  A    between atoms: _205  and  _206
REMARK   82  A    between atoms: _205  and  _208
REMARK   83  A    between atoms: _208  and  _209
REMARK   84  A    between atoms: _212  and  _214
REMARK   85  A    between atoms: _214  and  _215
REMARK   86  A    between atoms: _214  and  _217
REMARK   87  A    between atoms: _217  and  _218
REMARK   88  A    between atoms: _228  and  _230
REMARK   89  A    between atoms: _230  and  _231
REMARK   90  A    between atoms: _230  and  _233
REMARK   91  A    between atoms: _233  and  _234
REMARK   92  A    between atoms: _237  and  _239
REMARK   93  A    between atoms: _239  and  _240
REMARK   94  A    between atoms: _239  and  _242
REMARK   95  A    between atoms: _242  and  _243
REMARK   96  A    between atoms: _243  and  _244
REMARK   97  A    between atoms: _243  and  _245
REMARK   98  A    between atoms: _244  and  ZN_877
REMARK   99  A    between atoms: _245  and  ZN_876
REMARK  100  A    between atoms: _247  and  _248
REMARK  101  A    between atoms: _253  and  _255
REMARK  102  A    between atoms: _255  and  _256
REMARK  103  A    between atoms: _259  and  _261
REMARK  104  A    between atoms: _261  and  _262
REMARK  105  A    between atoms: _261  and  _264
REMARK  106  A    between atoms: _264  and  _265
REMARK  107  A    between atoms: _265  and  _266
REMARK  108  A    between atoms: _269  and  _271
REMARK  109  A    between atoms: _271  and  _272
REMARK  110  A    between atoms: _271  and  _274
REMARK  111  A    between atoms: _274  and  _275
REMARK  112  A    between atoms: _275  and  _276
REMARK  113  A    between atoms: _276  and  _278
REMARK  114  A    between atoms: _278  and  ZN_876
REMARK  115  A    between atoms: _279  and  _281
REMARK  116  A    between atoms: _281  and  _282
REMARK  117  A    between atoms: _281  and  _284
REMARK  118  A    between atoms: _284  and  _285
REMARK  119  A    between atoms: _291  and  _293
REMARK  120  A    between atoms: _293  and  _294
REMARK  121  A    between atoms: _296  and  _298
REMARK  122  A    between atoms: _298  and  _299
REMARK  123  A    between atoms: _298  and  _301
REMARK  124  A    between atoms: _301  and  _302
REMARK  125  A    between atoms: _305  and  _307
REMARK  126  A    between atoms: _307  and  _308
REMARK  127  A    between atoms: _307  and  _310
REMARK  128  A    between atoms: _310  and  _311
REMARK  129  A    between atoms: _314  and  _316
REMARK  130  A    between atoms: _316  and  _317
REMARK  131  A    between atoms: _316  and  _319
REMARK  132  A    between atoms: _319  and  _320
REMARK  133  A    between atoms: _325  and  _327
REMARK  134  A    between atoms: _327  and  _328
REMARK  135  A    between atoms: _327  and  _330
REMARK  136  A    between atoms: _330  and  _331
REMARK  137  A    between atoms: _331  and  _333
REMARK  138  A    between atoms: _333  and  ZN_877
REMARK  139  A    between atoms: _334  and  _336
REMARK  140  A    between atoms: _336  and  _337
REMARK  141  A    between atoms: _336  and  _339
REMARK  142  A    between atoms: _339  and  _340
REMARK  143  A    between atoms: _342  and  _344
REMARK  144  A    between atoms: _344  and  _345
REMARK  145  A    between atoms: _344  and  _347
REMARK  146  A    between atoms: _347  and  _348
REMARK  147  A    between atoms: _350  and  _352
REMARK  148  A    between atoms: _352  and  _353
REMARK  149  A    between atoms: _352  and  _355
REMARK  150  A    between atoms: _355  and  _356
REMARK  151  A    between atoms: _359  and  _361
REMARK  152  A    between atoms: _361  and  _362
REMARK  153  A    between atoms: _361  and  _364
REMARK  154  A    between atoms: _364  and  _365
REMARK  155  A    between atoms: _365  and  _366
REMARK  156  A    between atoms: _369  and  _371
REMARK  157  A    between atoms: _371  and  _372
REMARK  158  A    between atoms: _371  and  _374
REMARK  159  A    between atoms: _374  and  _375
REMARK  160  A    between atoms: _380  and  _381
REMARK  161  A    between atoms: _383  and  _385
REMARK  162  A    between atoms: _385  and  _386
REMARK  163  A    between atoms: _385  and  _388
REMARK  164  A    between atoms: _388  and  _389
REMARK  165  A    between atoms: _392  and  _394
REMARK  166  A    between atoms: _394  and  _395
REMARK  167  A    between atoms: _394  and  _397
REMARK  168  A    between atoms: _397  and  _398
REMARK  169  A    between atoms: _401  and  _403
REMARK  170  A    between atoms: _403  and  _404
REMARK  171  A    between atoms: _403  and  _406
REMARK  172  A    between atoms: _406  and  _407
REMARK  173  A    between atoms: _407  and  _408
REMARK  174  A    between atoms: _408  and  _409
REMARK  175  A    between atoms: _418  and  _420
REMARK  176  A    between atoms: _420  and  _421
REMARK  177  A    between atoms: _420  and  _423
REMARK  178  A    between atoms: _426  and  _428
REMARK  179  A    between atoms: _428  and  _429
REMARK  180  A    between atoms: _428  and  _431
REMARK  181  A    between atoms: _431  and  _432
REMARK  182  A    between atoms: _435  and  _437
REMARK  183  A    between atoms: _437  and  _438
REMARK  184  A    between atoms: _437  and  _440
REMARK  185  A    between atoms: _440  and  _441
REMARK  186  A    between atoms: _451  and  _453
REMARK  187  A    between atoms: _453  and  _454
REMARK  188  A    between atoms: _453  and  _456
REMARK  189  A    between atoms: _456  and  _457
REMARK  190  A    between atoms: _457  and  _458
REMARK  191  A    between atoms: _458  and  _459
REMARK  192  A    between atoms: _459  and  _460
REMARK  193  A    between atoms: _464  and  _466
REMARK  194  A    between atoms: _466  and  _467
REMARK  195  A    between atoms: _466  and  _469
REMARK  196  A    between atoms: _469  and  _470
REMARK  197  A    between atoms: _473  and  _474
REMARK  198  A    between atoms: _479  and  _481
REMARK  199  A    between atoms: _481  and  _482
REMARK  200  A    between atoms: _481  and  _484
REMARK  201  A    between atoms: _484  and  _485
REMARK  202  A    between atoms: _485  and  _486
REMARK  203  A    between atoms: _486  and  _487
REMARK  204  A    between atoms: _496  and  _498
REMARK  205  A    between atoms: _498  and  _499
REMARK  206  A    between atoms: _498  and  _501
REMARK  207  A    between atoms: _501  and  _502
REMARK  208  A    between atoms: _505  and  _507
REMARK  209  A    between atoms: _507  and  _508
REMARK  210  A    between atoms: _507  and  _510
REMARK  211  A    between atoms: _510  and  _511
REMARK  212  A    between atoms: _513  and  _515
REMARK  213  A    between atoms: _515  and  _516
REMARK  214  A    between atoms: _515  and  _518
REMARK  215  A    between atoms: _518  and  _519
REMARK  216  A    between atoms: _519  and  _520
REMARK  217  A    between atoms: _520  and  _521
REMARK  218  A    between atoms: _521  and  _522
REMARK  219  A    between atoms: _526  and  _528
REMARK  220  A    between atoms: _528  and  _529
REMARK  221  A    between atoms: _528  and  _531
REMARK  222  A    between atoms: _531  and  _532
REMARK  223  A    between atoms: _535  and  _537
REMARK  224  A    between atoms: _537  and  _538
REMARK  225  A    between atoms: _540  and  _542
REMARK  226  A    between atoms: _542  and  _543
REMARK  227  A    between atoms: _542  and  _545
REMARK  228  A    between atoms: _545  and  _546
REMARK  229  A    between atoms: _548  and  _550
REMARK  230  A    between atoms: _550  and  _551
REMARK  231  A    between atoms: _553  and  _555
REMARK  232  A    between atoms: _555  and  _556
REMARK  233  A    between atoms: _555  and  _558
REMARK  234  A    between atoms: _558  and  _559
REMARK  235  A    between atoms: _564  and  _566
REMARK  236  A    between atoms: _566  and  _567
REMARK  237  A    between atoms: _566  and  _569
REMARK  238  A    between atoms: _569  and  _570
REMARK  239  A    between atoms: _573  and  _575
REMARK  240  A    between atoms: _575  and  _576
REMARK  241  A    between atoms: _575  and  _578
REMARK  242  A    between atoms: _578  and  _579
REMARK  243  A    between atoms: _585  and  _587
REMARK  244  A    between atoms: _587  and  _588
REMARK  245  A    between atoms: _587  and  _590
REMARK  246  A    between atoms: _590  and  _591
REMARK  247  A    between atoms: _591  and  _592
REMARK  248  A    between atoms: _595  and  _597
REMARK  249  A    between atoms: _597  and  _598
REMARK  250  A    between atoms: _597  and  _600
REMARK  251  A    between atoms: _600  and  _601
REMARK  252  A    between atoms: _601  and  _602
REMARK  253  A    between atoms: _602  and  _603
REMARK  254  A    between atoms: _612  and  _614
REMARK  255  A    between atoms: _614  and  _615
REMARK  256  A    between atoms: _614  and  _617
REMARK  257  A    between atoms: _617  and  _618
REMARK  258  A    between atoms: _618  and  _619
REMARK  259  A    between atoms: _619  and  _620
REMARK  260  A    between atoms: _629  and  _631
REMARK  261  A    between atoms: _631  and  _632
REMARK  262  A    between atoms: _631  and  _634
REMARK  263  A    between atoms: _634  and  _635
REMARK  264  A    between atoms: _640  and  _641
REMARK  265  A    between atoms: _643  and  _645
REMARK  266  A    between atoms: _645  and  _646
REMARK  267  A    between atoms: _645  and  _648
REMARK  268  A    between atoms: _648  and  _649
REMARK  269  A    between atoms: _652  and  _654
REMARK  270  A    between atoms: _654  and  _655
REMARK  271  A    between atoms: _654  and  _657
REMARK  272  A    between atoms: _657  and  _658
REMARK  273  A    between atoms: _658  and  _659
REMARK  274  A    between atoms: _659  and  _660
REMARK  275  A    between atoms: _660  and  _661
REMARK  276  A    between atoms: _665  and  _667
REMARK  277  A    between atoms: _667  and  _668
REMARK  278  A    between atoms: _667  and  _670
REMARK  279  A    between atoms: _670  and  _671
REMARK  280  A    between atoms: _676  and  _678
REMARK  281  A    between atoms: _678  and  _679
REMARK  282  A    between atoms: _678  and  _681
REMARK  283  A    between atoms: _681  and  _682
REMARK  284  A    between atoms: _692  and  _694
REMARK  285  A    between atoms: _694  and  _695
REMARK  286  A    between atoms: _694  and  _697
REMARK  287  A    between atoms: _697  and  _698
REMARK  288  A    between atoms: _698  and  _699
REMARK  289  A    between atoms: _702  and  _704
REMARK  290  A    between atoms: _704  and  _705
REMARK  291  A    between atoms: _704  and  _707
REMARK  292  A    between atoms: _707  and  _708
REMARK  293  A    between atoms: _711  and  _713
REMARK  294  A    between atoms: _713  and  _714
REMARK  295  A    between atoms: _713  and  _716
REMARK  296  A    between atoms: _716  and  _717
REMARK  297  A    between atoms: _722  and  _724
REMARK  298  A    between atoms: _724  and  _725
REMARK  299  A    between atoms: _724  and  _727
REMARK  300  A    between atoms: _727  and  _728
REMARK  301  A    between atoms: _734  and  _736
REMARK  302  A    between atoms: _736  and  _737
REMARK  303  A    between atoms: _736  and  _739
REMARK  304  A    between atoms: _739  and  _740
REMARK  305  A    between atoms: _742  and  _744
REMARK  306  A    between atoms: _744  and  _745
REMARK  307  A    between atoms: _747  and  _749
REMARK  308  A    between atoms: _749  and  _750
REMARK  309  A    between atoms: _749  and  _752
REMARK  310  A    between atoms: _752  and  _753
REMARK  311  A    between atoms: _758  and  _759
REMARK  312  A    between atoms: _761  and  _763
REMARK  313  A    between atoms: _763  and  _764
REMARK  314  A    between atoms: _763  and  _766
REMARK  315  A    between atoms: _766  and  _767
REMARK  316  A    between atoms: _772  and  _773
REMARK  317  A    between atoms: _775  and  _777
REMARK  318  A    between atoms: _777  and  _778
REMARK  319  A    between atoms: _777  and  _780
REMARK  320  A    between atoms: _780  and  _781
REMARK  321  A    between atoms: _785  and  ZN_876
REMARK  322  A    between atoms: _786  and  _788
REMARK  323  A    between atoms: _788  and  _789
REMARK  324  A    between atoms: _788  and  _791
REMARK  325  A    between atoms: _791  and  _792
REMARK  326  A    between atoms: _792  and  _793
REMARK  327  A    between atoms: _796  and  _798
REMARK  328  A    between atoms: _798  and  _799
REMARK  329  A    between atoms: _798  and  _801
REMARK  330  A    between atoms: _801  and  _802
REMARK  331  A    between atoms: _802  and  _803
REMARK  332  A    between atoms: _803  and  _804
REMARK  333  A    between atoms: _813  and  _815
REMARK  334  A    between atoms: _815  and  _816
REMARK  335  A    between atoms: _815  and  _818
REMARK  336  A    between atoms: _818  and  _819
REMARK  337  A    between atoms: _824  and  _825
REMARK  338  A    between atoms: _827  and  _829
REMARK  339  A    between atoms: _829  and  _830
REMARK  340  A    between atoms: _829  and  _832
REMARK  341  A    between atoms: _832  and  _833
REMARK  342  A    between atoms: _838  and  _840
REMARK  343  A    between atoms: _840  and  _841
REMARK  344  A    between atoms: _840  and  _843
REMARK  345  A    between atoms: _843  and  _844
REMARK  346  A    between atoms: _844  and  _845
REMARK  347  A    between atoms: _845  and  _846
REMARK  348  A    between atoms: _846  and  _847
REMARK  349  A    between atoms: _851  and  _853
REMARK  350  A    between atoms: _853  and  _854
REMARK  351  A    between atoms: _853  and  _856
REMARK  352  A    between atoms: _856  and  _857
REMARK  353  A    between atoms: _862  and  _863
REMARK  354  A    between atoms: _865  and  _867
REMARK  355  A    between atoms: _867  and  _868
REMARK  356  A    between atoms: _871  and  _873
REMARK  357  A    between atoms: _873  and  _874
REMARK                            x       y       z     vdW  Elec       q    Type
REMARK                         _______ _______ _______ _____ _____    ______ ____
ROOT
ATOM      1  CB  ASN A   1      15.548  48.929  52.655  0.00  0.00    +0.110 C 
ENDROOT
BRANCH   1   2
ATOM      2  CG  ASN A   1      14.976  48.096  51.507  0.00  0.00    +0.221 C 
ATOM      3  OD1 ASN A   1      13.736  47.897  51.381  0.00  0.00    -0.275 OA
ATOM      4  ND2 ASN A   1      15.874  47.574  50.654  0.00  0.00    -0.329 N 
ATOM      5 HD21 ASN A   1      16.888  47.759  50.789  0.00  0.00    +0.145 HD
ATOM      6 HD22 ASN A   1      15.554  46.985  49.859  0.00  0.00    +0.145 HD
ENDBRANCH   1   2
BRANCH   1   7
ATOM      7  CA  ASN A   1      15.010  48.485  54.016  0.00  0.00    +0.142 C 
BRANCH   7   8
ATOM      8  N   ASN A   1      15.097  49.629  54.915  0.00  0.00    -0.239 NA
ATOM      9  H   ASN A   1      15.742  50.418  54.708  0.00  0.00    +0.142 HD
ENDBRANCH   7   8
BRANCH   7  10
ATOM     10  C   ASN A   1      15.868  47.306  54.539  0.00  0.00    +0.225 C 
ATOM     11  O   ASN A   1      16.808  47.502  55.347  0.00  0.00    -0.287 OA
ENDBRANCH   7  10
ENDBRANCH   1   7
TORSDOF 4
REMARK  Name = ../refined-set-2016/2xei/2xei_pocket.pdb
REMARK  357 active torsions:
REMARK  status: ('A' for Active; 'I' for Inactive)
REMARK    1  A    between atoms: _1  and  _3
REMARK    2  A    between atoms: _3  and  _4
REMARK    3  A    between atoms: _7  and  _9
REMARK    4  A    between atoms: _9  and  _10
REMARK    5  A    between atoms: _9  and  _12
REMARK    6  A    between atoms: _12  and  _13
REMARK    7  A    between atoms: _19  and  _21
REMARK    8  A    between atoms: _21  and  _22
REMARK    9  A    between atoms: _24  and  _26
REMARK   10  A    between atoms: _26  and  _27
REMARK   11  A    between atoms: _26  and  _29
REMARK   12  A    between atoms: _29  and  _30
REMARK   13  A    between atoms: _30  and  _31
REMARK   14  A    between atoms: _31  and  _32
REMARK   15  A    between atoms: _32  and  _33
REMARK   16  A    between atoms: _37  and  _39
REMARK   17  A    between atoms: _39  and  _40
REMARK   18  A    between atoms: _39  and  _42
REMARK   19  A    between atoms: _45  and  _47
REMARK   20  A    between atoms: _47  and  _48
REMARK   21  A    between atoms: _47  and  _50
REMARK   22  A    between atoms: _50  and  _51
REMARK   23  A    between atoms: _57  and  _59
REMARK   24  A    between atoms: _59  and  _60
REMARK   25  A    between atoms: _59  and  _62
REMARK   26  A    between atoms: _62  and  _63
REMARK   27  A    between atoms: _63  and  _64
REMARK   28  A    between atoms: _64  and  _65
REMARK   29  A    between atoms: _74  and  _76
REMARK   30  A    between atoms: _76  and  _77
REMARK   31  A    between atoms: _79  and  _81
REMARK   32  A    between atoms: _81  and  _82
REMARK   33  A    between atoms: _81  and  _84
REMARK   34  A    between atoms: _84  and  _85
REMARK   35  A    between atoms: _90  and  _91
REMARK   36  A    between atoms: _93  and  _95
REMARK   37  A    between atoms: _95  and  _96
REMARK   38  A    between atoms: _95  and  _98
REMARK   39  A    between atoms: _98  and  _99
REMARK   40  A    between atoms: _99  and  _100
REMARK   41  A    between atoms: _105  and  _107
REMARK   42  A    between atoms: _107  and  _108
REMARK   43  A    between atoms: _107  and  _110
REMARK   44  A    between atoms: _110  and  _111
REMARK   45  A    between atoms: _111  and  _112
REMARK   46  A    between atoms: _112  and  _113
REMARK   47  A    between atoms: _122  and  _124
REMARK   48  A    between atoms: _124  and  _125
REMARK   49  A    between atoms: _127  and  _129
REMARK   50  A    between atoms: _129  and  _130
REMARK   51  A    between atoms: _129  and  _132
REMARK   52  A    between atoms: _132  and  _133
REMARK   53  A    between atoms: _138  and  _140
REMARK   54  A    between atoms: _140  and  _141
REMARK   55  A    between atoms: _140  and  _143
REMARK   56  A    between atoms: _143  and  _144
REMARK   57  A    between atoms: _147  and  _149
REMARK   58  A    between atoms: _149  and  _150
REMARK   59  A    between atoms: _149  and  _152
REMARK   60  A    between atoms: _152  and  _153
REMARK   61  A    between atoms: _156  and  _158
REMARK   62  A    between atoms: _158  and  _159
REMARK   63  A    between atoms: _158  and  _161
REMARK   64  A    between atoms: _161  and  _162
REMARK   65  A    between atoms: _167  and  _169
REMARK   66  A    between atoms: _169  and  _170
REMARK   67  A    between atoms: _169  and  _172
REMARK   68  A    between atoms: _172  and  _173
REMARK   69  A    between atoms: _176  and  _178
REMARK   70  A    between atoms: _178  and  _179
REMARK   71  A    between atoms: _178  and  _181
REMARK   72  A    between atoms: _181  and  _182
REMARK   73  A    between atoms: _187  and  _189
REMARK   74  A    between atoms: _189  and  _190
REMARK   75  A    between atoms: _192  and  _194
REMARK   76  A    between atoms: _194  and  _195
REMARK   77  A    between atoms: _194  and  _197
REMARK   78  A    between atoms: _197  and  _198
REMARK   79  A    between atoms: _202  and  ZN_877
REMARK   80  A    between atoms: _203  and  _205
REMARK   81  A    between atoms: _205  and  _206
REMARK   82  A    between atoms: _205  and  _208
REMARK   83  A    between atoms: _208  and  _209
REMARK   84  A    between atoms: _212  and  _214
REMARK   85  A    between atoms: _214  and  _215
REMARK   86  A    between atoms: _214  and  _217
REMARK   87  A    between atoms: _217  and  _218
REMARK   88  A    between atoms: _228  and  _230
REMARK   89  A    between atoms: _230  and  _231
REMARK   90  A    between atoms: _230  and  _233
REMARK   91  A    between atoms: _233  and  _234
REMARK   92  A    between atoms: _237  and  _239
REMARK   93  A    between atoms: _239  and  _240
REMARK   94  A    between atoms: _239  and  _242
REMARK   95  A    between atoms: _242  and  _243
REMARK   96  A    between atoms: _243  and  _244
REMARK   97  A    between atoms: _243  and  _245
REMARK   98  A    between atoms: _244  and  ZN_877
REMARK   99  A    between atoms: _245  and  ZN_876
REMARK  100  A    between atoms: _247  and  _248
REMARK  101  A    between atoms: _253  and  _255
REMARK  102  A    between atoms: _255  and  _256
REMARK  103  A    between atoms: _259  and  _261
REMARK  104  A    between atoms: _261  and  _262
REMARK  105  A    between atoms: _261  and  _264
REMARK  106  A    between atoms: _264  and  _265
REMARK  107  A    between atoms: _265  and  _266
REMARK  108  A    between atoms: _269  and  _271
REMARK  109  A    between atoms: _271  and  _272
REMARK  110  A    between atoms: _271  and  _274
REMARK  111  A    between atoms: _274  and  _275
REMARK  112  A    between atoms: _275  and  _276
REMARK  113  A    between atoms: _276  and  _278
REMARK  114  A    between atoms: _278  and  ZN_876
REMARK  115  A    between atoms: _279  and  _281
REMARK  116  A    between atoms: _281  and  _282
REMARK  117  A    between atoms: _281  and  _284
REMARK  118  A    between atoms: _284  and  _285
REMARK  119  A    between atoms: _291  and  _293
REMARK  120  A    between atoms: _293  and  _294
REMARK  121  A    between atoms: _296  and  _298
REMARK  122  A    between atoms: _298  and  _299
REMARK  123  A    between atoms: _298  and  _301
REMARK  124  A    between atoms: _301  and  _302
REMARK  125  A    between atoms: _305  and  _307
REMARK  126  A    between atoms: _307  and  _308
REMARK  127  A    between atoms: _307  and  _310
REMARK  128  A    between atoms: _310  and  _311
REMARK  129  A    between atoms: _314  and  _316
REMARK  130  A    between atoms: _316  and  _317
REMARK  131  A    between atoms: _316  and  _319
REMARK  132  A    between atoms: _319  and  _320
REMARK  133  A    between atoms: _325  and  _327
REMARK  134  A    between atoms: _327  and  _328
REMARK  135  A    between atoms: _327  and  _330
REMARK  136  A    between atoms: _330  and  _331
REMARK  137  A    between atoms: _331  and  _333
REMARK  138  A    between atoms: _333  and  ZN_877
REMARK  139  A    between atoms: _334  and  _336
REMARK  140  A    between atoms: _336  and  _337
REMARK  141  A    between atoms: _336  and  _339
REMARK  142  A    between atoms: _339  and  _340
REMARK  143  A    between atoms: _342  and  _344
REMARK  144  A    between atoms: _344  and  _345
REMARK  145  A    between atoms: _344  and  _347
REMARK  146  A    between atoms: _347  and  _348
REMARK  147  A    between atoms: _350  and  _352
REMARK  148  A    between atoms: _352  and  _353
REMARK  149  A    between atoms: _352  and  _355
REMARK  150  A    between atoms: _355  and  _356
REMARK  151  A    between atoms: _359  and  _361
REMARK  152  A    between atoms: _361  and  _362
REMARK  153  A    between atoms: _361  and  _364
REMARK  154  A    between atoms: _364  and  _365
REMARK  155  A    between atoms: _365  and  _366
REMARK  156  A    between atoms: _369  and  _371
REMARK  157  A    between atoms: _371  and  _372
REMARK  158  A    between atoms: _371  and  _374
REMARK  159  A    between atoms: _374  and  _375
REMARK  160  A    between atoms: _380  and  _381
REMARK  161  A    between atoms: _383  and  _385
REMARK  162  A    between atoms: _385  and  _386
REMARK  163  A    between atoms: _385  and  _388
REMARK  164  A    between atoms: _388  and  _389
REMARK  165  A    between atoms: _392  and  _394
REMARK  166  A    between atoms: _394  and  _395
REMARK  167  A    between atoms: _394  and  _397
REMARK  168  A    between atoms: _397  and  _398
REMARK  169  A    between atoms: _401  and  _403
REMARK  170  A    between atoms: _403  and  _404
REMARK  171  A    between atoms: _403  and  _406
REMARK  172  A    between atoms: _406  and  _407
REMARK  173  A    between atoms: _407  and  _408
REMARK  174  A    between atoms: _408  and  _409
REMARK  175  A    between atoms: _418  and  _420
REMARK  176  A    between atoms: _420  and  _421
REMARK  177  A    between atoms: _420  and  _423
REMARK  178  A    between atoms: _426  and  _428
REMARK  179  A    between atoms: _428  and  _429
REMARK  180  A    between atoms: _428  and  _431
REMARK  181  A    between atoms: _431  and  _432
REMARK  182  A    between atoms: _435  and  _437
REMARK  183  A    between atoms: _437  and  _438
REMARK  184  A    between atoms: _437  and  _440
REMARK  185  A    between atoms: _440  and  _441
REMARK  186  A    between atoms: _451  and  _453
REMARK  187  A    between atoms: _453  and  _454
REMARK  188  A    between atoms: _453  and  _456
REMARK  189  A    between atoms: _456  and  _457
REMARK  190  A    between atoms: _457  and  _458
REMARK  191  A    between atoms: _458  and  _459
REMARK  192  A    between atoms: _459  and  _460
REMARK  193  A    between atoms: _464  and  _466
REMARK  194  A    between atoms: _466  and  _467
REMARK  195  A    between atoms: _466  and  _469
REMARK  196  A    between atoms: _469  and  _470
REMARK  197  A    between atoms: _473  and  _474
REMARK  198  A    between atoms: _479  and  _481
REMARK  199  A    between atoms: _481  and  _482
REMARK  200  A    between atoms: _481  and  _484
REMARK  201  A    between atoms: _484  and  _485
REMARK  202  A    between atoms: _485  and  _486
REMARK  203  A    between atoms: _486  and  _487
REMARK  204  A    between atoms: _496  and  _498
REMARK  205  A    between atoms: _498  and  _499
REMARK  206  A    between atoms: _498  and  _501
REMARK  207  A    between atoms: _501  and  _502
REMARK  208  A    between atoms: _505  and  _507
REMARK  209  A    between atoms: _507  and  _508
REMARK  210  A    between atoms: _507  and  _510
REMARK  211  A    between atoms: _510  and  _511
REMARK  212  A    between atoms: _513  and  _515
REMARK  213  A    between atoms: _515  and  _516
REMARK  214  A    between atoms: _515  and  _518
REMARK  215  A    between atoms: _518  and  _519
REMARK  216  A    between atoms: _519  and  _520
REMARK  217  A    between atoms: _520  and  _521
REMARK  218  A    between atoms: _521  and  _522
REMARK  219  A    between atoms: _526  and  _528
REMARK  220  A    between atoms: _528  and  _529
REMARK  221  A    between atoms: _528  and  _531
REMARK  222  A    between atoms: _531  and  _532
REMARK  223  A    between atoms: _535  and  _537
REMARK  224  A    between atoms: _537  and  _538
REMARK  225  A    between atoms: _540  and  _542
REMARK  226  A    between atoms: _542  and  _543
REMARK  227  A    between atoms: _542  and  _545
REMARK  228  A    between atoms: _545  and  _546
REMARK  229  A    between atoms: _548  and  _550
REMARK  230  A    between atoms: _550  and  _551
REMARK  231  A    between atoms: _553  and  _555
REMARK  232  A    between atoms: _555  and  _556
REMARK  233  A    between atoms: _555  and  _558
REMARK  234  A    between atoms: _558  and  _559
REMARK  235  A    between atoms: _564  and  _566
REMARK  236  A    between atoms: _566  and  _567
REMARK  237  A    between atoms: _566  and  _569
REMARK  238  A    between atoms: _569  and  _570
REMARK  239  A    between atoms: _573  and  _575
REMARK  240  A    between atoms: _575  and  _576
REMARK  241  A    between atoms: _575  and  _578
REMARK  242  A    between atoms: _578  and  _579
REMARK  243  A    between atoms: _585  and  _587
REMARK  244  A    between atoms: _587  and  _588
REMARK  245  A    between atoms: _587  and  _590
REMARK  246  A    between atoms: _590  and  _591
REMARK  247  A    between atoms: _591  and  _592
REMARK  248  A    between atoms: _595  and  _597
REMARK  249  A    between atoms: _597  and  _598
REMARK  250  A    between atoms: _597  and  _600
REMARK  251  A    between atoms: _600  and  _601
REMARK  252  A    between atoms: _601  and  _602
REMARK  253  A    between atoms: _602  and  _603
REMARK  254  A    between atoms: _612  and  _614
REMARK  255  A    between atoms: _614  and  _615
REMARK  256  A    between atoms: _614  and  _617
REMARK  257  A    between atoms: _617  and  _618
REMARK  258  A    between atoms: _618  and  _619
REMARK  259  A    between atoms: _619  and  _620
REMARK  260  A    between atoms: _629  and  _631
REMARK  261  A    between atoms: _631  and  _632
REMARK  262  A    between atoms: _631  and  _634
REMARK  263  A    between atoms: _634  and  _635
REMARK  264  A    between atoms: _640  and  _641
REMARK  265  A    between atoms: _643  and  _645
REMARK  266  A    between atoms: _645  and  _646
REMARK  267  A    between atoms: _645  and  _648
REMARK  268  A    between atoms: _648  and  _649
REMARK  269  A    between atoms: _652  and  _654
REMARK  270  A    between atoms: _654  and  _655
REMARK  271  A    between atoms: _654  and  _657
REMARK  272  A    between atoms: _657  and  _658
REMARK  273  A    between atoms: _658  and  _659
REMARK  274  A    between atoms: _659  and  _660
REMARK  275  A    between atoms: _660  and  _661
REMARK  276  A    between atoms: _665  and  _667
REMARK  277  A    between atoms: _667  and  _668
REMARK  278  A    between atoms: _667  and  _670
REMARK  279  A    between atoms: _670  and  _671
REMARK  280  A    between atoms: _676  and  _678
REMARK  281  A    between atoms: _678  and  _679
REMARK  282  A    between atoms: _678  and  _681
REMARK  283  A    between atoms: _681  and  _682
REMARK  284  A    between atoms: _692  and  _694
REMARK  285  A    between atoms: _694  and  _695
REMARK  286  A    between atoms: _694  and  _697
REMARK  287  A    between atoms: _697  and  _698
REMARK  288  A    between atoms: _698  and  _699
REMARK  289  A    between atoms: _702  and  _704
REMARK  290  A    between atoms: _704  and  _705
REMARK  291  A    between atoms: _704  and  _707
REMARK  292  A    between atoms: _707  and  _708
REMARK  293  A    between atoms: _711  and  _713
REMARK  294  A    between atoms: _713  and  _714
REMARK  295  A    between atoms: _713  and  _716
REMARK  296  A    between atoms: _716  and  _717
REMARK  297  A    between atoms: _722  and  _724
REMARK  298  A    between atoms: _724  and  _725
REMARK  299  A    between atoms: _724  and  _727
REMARK  300  A    between atoms: _727  and  _728
REMARK  301  A    between atoms: _734  and  _736
REMARK  302  A    between atoms: _736  and  _737
REMARK  303  A    between atoms: _736  and  _739
REMARK  304  A    between atoms: _739  and  _740
REMARK  305  A    between atoms: _742  and  _744
REMARK  306  A    between atoms: _744  and  _745
REMARK  307  A    between atoms: _747  and  _749
REMARK  308  A    between atoms: _749  and  _750
REMARK  309  A    between atoms: _749  and  _752
REMARK  310  A    between atoms: _752  and  _753
REMARK  311  A    between atoms: _758  and  _759
REMARK  312  A    between atoms: _761  and  _763
REMARK  313  A    between atoms: _763  and  _764
REMARK  314  A    between atoms: _763  and  _766
REMARK  315  A    between atoms: _766  and  _767
REMARK  316  A    between atoms: _772  and  _773
REMARK  317  A    between atoms: _775  and  _777
REMARK  318  A    between atoms: _777  and  _778
REMARK  319  A    between atoms: _777  and  _780
REMARK  320  A    between atoms: _780  and  _781
REMARK  321  A    between atoms: _785  and  ZN_876
REMARK  322  A    between atoms: _786  and  _788
REMARK  323  A    between atoms: _788  and  _789
REMARK  324  A    between atoms: _788  and  _791
REMARK  325  A    between atoms: _791  and  _792
REMARK  326  A    between atoms: _792  and  _793
REMARK  327  A    between atoms: _796  and  _798
REMARK  328  A    between atoms: _798  and  _799
REMARK  329  A    between atoms: _798  and  _801
REMARK  330  A    between atoms: _801  and  _802
REMARK  331  A    between atoms: _802  and  _803
REMARK  332  A    between atoms: _803  and  _804
REMARK  333  A    between atoms: _813  and  _815
REMARK  334  A    between atoms: _815  and  _816
REMARK  335  A    between atoms: _815  and  _818
REMARK  336  A    between atoms: _818  and  _819
REMARK  337  A    between atoms: _824  and  _825
REMARK  338  A    between atoms: _827  and  _829
REMARK  339  A    between atoms: _829  and  _830
REMARK  340  A    between atoms: _829  and  _832
REMARK  341  A    between atoms: _832  and  _833
REMARK  342  A    between atoms: _838  and  _840
REMARK  343  A    between atoms: _840  and  _841
REMARK  344  A    between atoms: _840  and  _843
REMARK  345  A    between atoms: _843  and  _844
REMARK  346  A    between atoms: _844  and  _845
REMARK  347  A    between atoms: _845  and  _846
REMARK  348  A    between atoms: _846  and  _847
REMARK  349  A    between atoms: _851  and  _853
REMARK  350  A    between atoms: _853  and  _854
REMARK  351  A    between atoms: _853  and  _856
REMARK  352  A    between atoms: _856  and  _857
REMARK  353  A    between atoms: _862  and  _863
REMARK  354  A    between atoms: _865  and  _867
REMARK  355  A    between atoms: _867  and  _868
REMARK  356  A    between atoms: _871  and  _873
REMARK  357  A    between atoms: _873  and  _874
REMARK                            x       y       z     vdW  Elec       q    Type
REMARK                         _______ _______ _______ _____ _____    ______ ____
ROOT
ATOM      1  C   LEU A   3      29.557  49.547  55.092  0.00  0.00    +0.241 C 
ATOM      2  O   LEU A   3      30.426  50.307  54.703  0.00  0.00    -0.273 OA
ATOM      3  N   ARG A   4      28.318  49.518  54.610  0.00  0.00    -0.297 N 
ATOM      4  H   ARG A   4      27.664  48.800  54.983  0.00  0.00    +0.150 HD
ENDROOT
BRANCH   3   5
ATOM      5  CA  ARG A   4      27.830  50.422  53.603  0.00  0.00    +0.149 C 
BRANCH   5   6
ATOM      6  C   ARG A   4      26.470  50.919  54.120  0.00  0.00    +0.241 C 
ATOM      7  O   ARG A   4      25.632  50.101  54.542  0.00  0.00    -0.273 OA
ATOM      8  N   VAL A   5      26.282  52.234  54.148  0.00  0.00    -0.297 N 
ATOM      9  H   VAL A   5      27.070  52.874  53.925  0.00  0.00    +0.150 HD
BRANCH   8  10
ATOM     10  CA  VAL A   5      24.953  52.793  54.496  0.00  0.00    +0.149 C 
BRANCH  10  11
ATOM     11  C   VAL A   5      24.541  53.802  53.403  0.00  0.00    +0.241 C 
ATOM     12  O   VAL A   5      25.382  54.606  52.974  0.00  0.00    -0.273 OA
ATOM     13  N   ASP A   6      23.265  53.773  52.971  0.00  0.00    -0.298 N 
ATOM     14  H   ASP A   6      22.643  52.996  53.272  0.00  0.00    +0.150 HD
BRANCH  13  15
ATOM     15  CA  ASP A   6      22.734  54.817  52.083  0.00  0.00    +0.148 C 
BRANCH  15  16
ATOM     16  C   ASP A   6      21.465  55.260  52.847  0.00  0.00    +0.227 C 
ATOM     17  O   ASP A   6      20.612  54.434  53.162  0.00  0.00    -0.286 OA
ENDBRANCH  15  16
BRANCH  15  18
ATOM     18  CB  ASP A   6      22.286  54.320  50.684  0.00  0.00    +0.142 C 
BRANCH  18  19
ATOM     19  CG  ASP A   6      23.277  53.369  49.962  0.00  0.00    +0.367 C 
ATOM     20  OD2 ASP A   6      24.427  53.145  50.407  0.00  0.00    -0.246 OA
ATOM     21  OD1 ASP A   6      22.853  52.759  48.901  0.00  0.00    -0.246 OA
ENDBRANCH  18  19
ENDBRANCH  15  18
ENDBRANCH  13  15
ENDBRANCH  10  11
BRANCH  10  22
ATOM     22  CB  VAL A   5      25.037  53.517  55.871  0.00  0.00    +0.027 C 
ATOM     23  CG2 VAL A   5      25.522  52.571  56.976  0.00  0.00    +0.002 C 
ATOM     24  CG1 VAL A   5      23.693  54.105  56.293  0.00  0.00    +0.002 C 
ENDBRANCH  10  22
ENDBRANCH   8  10
ENDBRANCH   5   6
BRANCH   5  25
ATOM     25  CB  ARG A   4      27.651  49.680  52.238  0.00  0.00    +0.033 C 
BRANCH  25  26
ATOM     26  CG  ARG A   4      26.908  50.519  51.272  0.00  0.00    +0.045 C 
BRANCH  26  27
ATOM     27  CD  ARG A   4      26.706  49.812  49.956  0.00  0.00    +0.174 C 
BRANCH  27  28
ATOM     28  NE  ARG A   4      25.564  50.435  49.273  0.00  0.00    -0.265 N 
ATOM     29  HE  ARG A   4      25.108  51.253  49.725  0.00  0.00    +0.259 HD
ATOM     30  CZ  ARG A   4      25.084  50.011  48.113  0.00  0.00    +0.342 C 
ATOM     31  NH2 ARG A   4      24.013  50.611  47.568  0.00  0.00    -0.292 N 
ATOM     32 HH21 ARG A   4      23.560  51.409  48.057  0.00  0.00    +0.255 HD
ATOM     33 HH22 ARG A   4      23.637  50.277  46.657  0.00  0.00    +0.255 HD
ATOM     34  NH1 ARG A   4      25.664  48.961  47.506  0.00  0.00    -0.292 N 
ATOM     35 HH11 ARG A   4      26.480  48.491  47.947  0.00  0.00    +0.255 HD
ATOM     36 HH12 ARG A   4      25.297  48.619  46.595  0.00  0.00    +0.255 HD
ENDBRANCH  27  28
ENDBRANCH  26  27
ENDBRANCH  25  26
ENDBRANCH   5  25
ENDBRANCH   3   5
BRANCH   1  37
ATOM     37  CA  LEU A   3      29.827  48.624  56.283  0.00  0.00    +0.149 C 
BRANCH  37  39
ATOM     38  C   THR A   2      31.731  47.334  55.453  0.00  0.00    +0.243 C 
ATOM     39  N   LEU A   3      31.230  48.169  56.362  0.00  0.00    -0.297 N 
ATOM     40  H   LEU A   3      31.835  48.505  57.138  0.00  0.00    +0.150 HD
ATOM     41  O   THR A   2      31.078  46.744  54.599  0.00  0.00    -0.273 OA
BRANCH  38  42
ATOM     42  CA  THR A   2      33.222  47.021  55.595  0.00  0.00    +0.176 C 
BRANCH  42  45
ATOM     43  C   TYR A   1      34.743  45.293  54.902  0.00  0.00    +0.239 C 
ATOM     44  O   TYR A   1      35.436  45.526  55.892  0.00  0.00    -0.274 OA
ATOM     45  N   THR A   2      33.599  45.960  54.667  0.00  0.00    -0.295 N 
ATOM     46  H   THR A   2      33.001  45.727  53.849  0.00  0.00    +0.150 HD
BRANCH  43  47
ATOM     47  CA  TYR A   1      35.169  44.242  53.894  0.00  0.00    +0.149 C 
BRANCH  47  48
ATOM     48  N   TYR A   1      34.094  43.285  53.618  0.00  0.00    -0.238 NA
ATOM     49  H   TYR A   1      33.362  43.527  52.920  0.00  0.00    +0.142 HD
ENDBRANCH  47  48
BRANCH  47  50
ATOM     50  CB  TYR A   1      35.563  44.961  52.618  0.00  0.00    +0.053 C 
BRANCH  50  51
ATOM     51  CG  TYR A   1      36.719  45.925  52.832  0.00  0.00    -0.020 A 
ATOM     52  CD2 TYR A   1      37.980  45.454  53.237  0.00  0.00    -0.001 A 
ATOM     53  CE2 TYR A   1      39.065  46.326  53.403  0.00  0.00    +0.036 A 
ATOM     54  CZ  TYR A   1      38.869  47.664  53.132  0.00  0.00    +0.134 A 
ATOM     55  CE1 TYR A   1      37.634  48.155  52.701  0.00  0.00    +0.036 A 
ATOM     56  CD1 TYR A   1      36.558  47.270  52.557  0.00  0.00    -0.001 A 
BRANCH  54  57
ATOM     57  OH  TYR A   1      39.911  48.541  53.284  0.00  0.00    -0.506 OA
ATOM     58  HH  TYR A   1      40.103  48.977  52.416  0.00  0.00    +0.292 HD
ENDBRANCH  54  57
ENDBRANCH  50  51
ENDBRANCH  47  50
ENDBRANCH  43  47
ENDBRANCH  42  45
BRANCH  42  59
ATOM     59  CB  THR A   2      34.055  48.337  55.416  0.00  0.00    +0.137 C 
ATOM     60  CG2 THR A   2      33.589  49.105  54.172  0.00  0.00    +0.034 C 
BRANCH  59  61
ATOM     61  OG1 THR A   2      33.825  49.187  56.555  0.00  0.00    -0.382 OA
ATOM     62  HG1 THR A   2      34.110  48.717  57.379  0.00  0.00    +0.210 HD
ENDBRANCH  59  61
ENDBRANCH  42  59
ENDBRANCH  38  42
ENDBRANCH  37  39
BRANCH  37  63
ATOM     63  CB  LEU A   3      29.431  49.338  57.593  0.00  0.00    +0.029 C 
BRANCH  63  64
ATOM     64  CG  LEU A   3      27.902  49.588  57.795  0.00  0.00    +0.002 C 
ATOM     65  CD2 LEU A   3      27.815  50.495  59.003  0.00  0.00    +0.000 C 
ATOM     66  CD1 LEU A   3      27.256  48.212  58.060  0.00  0.00    +0.000 C 
ENDBRANCH  63  64
ENDBRANCH  37  63
ENDBRANCH   1  37
TORSDOF 26
REMARK  Name = ../refined-set-2016/2xei/2xei_pocket.pdb
REMARK  357 active torsions:
REMARK  status: ('A' for Active; 'I' for Inactive)
REMARK    1  A    between atoms: _1  and  _3
REMARK    2  A    between atoms: _3  and  _4
REMARK    3  A    between atoms: _7  and  _9
REMARK    4  A    between atoms: _9  and  _10
REMARK    5  A    between atoms: _9  and  _12
REMARK    6  A    between atoms: _12  and  _13
REMARK    7  A    between atoms: _19  and  _21
REMARK    8  A    between atoms: _21  and  _22
REMARK    9  A    between atoms: _24  and  _26
REMARK   10  A    between atoms: _26  and  _27
REMARK   11  A    between atoms: _26  and  _29
REMARK   12  A    between atoms: _29  and  _30
REMARK   13  A    between atoms: _30  and  _31
REMARK   14  A    between atoms: _31  and  _32
REMARK   15  A    between atoms: _32  and  _33
REMARK   16  A    between atoms: _37  and  _39
REMARK   17  A    between atoms: _39  and  _40
REMARK   18  A    between atoms: _39  and  _42
REMARK   19  A    between atoms: _45  and  _47
REMARK   20  A    between atoms: _47  and  _48
REMARK   21  A    between atoms: _47  and  _50
REMARK   22  A    between atoms: _50  and  _51
REMARK   23  A    between atoms: _57  and  _59
REMARK   24  A    between atoms: _59  and  _60
REMARK   25  A    between atoms: _59  and  _62
REMARK   26  A    between atoms: _62  and  _63
REMARK   27  A    between atoms: _63  and  _64
REMARK   28  A    between atoms: _64  and  _65
REMARK   29  A    between atoms: _74  and  _76
REMARK   30  A    between atoms: _76  and  _77
REMARK   31  A    between atoms: _79  and  _81
REMARK   32  A    between atoms: _81  and  _82
REMARK   33  A    between atoms: _81  and  _84
REMARK   34  A    between atoms: _84  and  _85
REMARK   35  A    between atoms: _90  and  _91
REMARK   36  A    between atoms: _93  and  _95
REMARK   37  A    between atoms: _95  and  _96
REMARK   38  A    between atoms: _95  and  _98
REMARK   39  A    between atoms: _98  and  _99
REMARK   40  A    between atoms: _99  and  _100
REMARK   41  A    between atoms: _105  and  _107
REMARK   42  A    between atoms: _107  and  _108
REMARK   43  A    between atoms: _107  and  _110
REMARK   44  A    between atoms: _110  and  _111
REMARK   45  A    between atoms: _111  and  _112
REMARK   46  A    between atoms: _112  and  _113
REMARK   47  A    between atoms: _122  and  _124
REMARK   48  A    between atoms: _124  and  _125
REMARK   49  A    between atoms: _127  and  _129
REMARK   50  A    between atoms: _129  and  _130
REMARK   51  A    between atoms: _129  and  _132
REMARK   52  A    between atoms: _132  and  _133
REMARK   53  A    between atoms: _138  and  _140
REMARK   54  A    between atoms: _140  and  _141
REMARK   55  A    between atoms: _140  and  _143
REMARK   56  A    between atoms: _143  and  _144
REMARK   57  A    between atoms: _147  and  _149
REMARK   58  A    between atoms: _149  and  _150
REMARK   59  A    between atoms: _149  and  _152
REMARK   60  A    between atoms: _152  and  _153
REMARK   61  A    between atoms: _156  and  _158
REMARK   62  A    between atoms: _158  and  _159
REMARK   63  A    between atoms: _158  and  _161
REMARK   64  A    between atoms: _161  and  _162
REMARK   65  A    between atoms: _167  and  _169
REMARK   66  A    between atoms: _169  and  _170
REMARK   67  A    between atoms: _169  and  _172
REMARK   68  A    between atoms: _172  and  _173
REMARK   69  A    between atoms: _176  and  _178
REMARK   70  A    between atoms: _178  and  _179
REMARK   71  A    between atoms: _178  and  _181
REMARK   72  A    between atoms: _181  and  _182
REMARK   73  A    between atoms: _187  and  _189
REMARK   74  A    between atoms: _189  and  _190
REMARK   75  A    between atoms: _192  and  _194
REMARK   76  A    between atoms: _194  and  _195
REMARK   77  A    between atoms: _194  and  _197
REMARK   78  A    between atoms: _197  and  _198
REMARK   79  A    between atoms: _202  and  ZN_877
REMARK   80  A    between atoms: _203  and  _205
REMARK   81  A    between atoms: _205  and  _206
REMARK   82  A    between atoms: _205  and  _208
REMARK   83  A    between atoms: _208  and  _209
REMARK   84  A    between atoms: _212  and  _214
REMARK   85  A    between atoms: _214  and  _215
REMARK   86  A    between atoms: _214  and  _217
REMARK   87  A    between atoms: _217  and  _218
REMARK   88  A    between atoms: _228  and  _230
REMARK   89  A    between atoms: _230  and  _231
REMARK   90  A    between atoms: _230  and  _233
REMARK   91  A    between atoms: _233  and  _234
REMARK   92  A    between atoms: _237  and  _239
REMARK   93  A    between atoms: _239  and  _240
REMARK   94  A    between atoms: _239  and  _242
REMARK   95  A    between atoms: _242  and  _243
REMARK   96  A    between atoms: _243  and  _244
REMARK   97  A    between atoms: _243  and  _245
REMARK   98  A    between atoms: _244  and  ZN_877
REMARK   99  A    between atoms: _245  and  ZN_876
REMARK  100  A    between atoms: _247  and  _248
REMARK  101  A    between atoms: _253  and  _255
REMARK  102  A    between atoms: _255  and  _256
REMARK  103  A    between atoms: _259  and  _261
REMARK  104  A    between atoms: _261  and  _262
REMARK  105  A    between atoms: _261  and  _264
REMARK  106  A    between atoms: _264  and  _265
REMARK  107  A    between atoms: _265  and  _266
REMARK  108  A    between atoms: _269  and  _271
REMARK  109  A    between atoms: _271  and  _272
REMARK  110  A    between atoms: _271  and  _274
REMARK  111  A    between atoms: _274  and  _275
REMARK  112  A    between atoms: _275  and  _276
REMARK  113  A    between atoms: _276  and  _278
REMARK  114  A    between atoms: _278  and  ZN_876
REMARK  115  A    between atoms: _279  and  _281
REMARK  116  A    between atoms: _281  and  _282
REMARK  117  A    between atoms: _281  and  _284
REMARK  118  A    between atoms: _284  and  _285
REMARK  119  A    between atoms: _291  and  _293
REMARK  120  A    between atoms: _293  and  _294
REMARK  121  A    between atoms: _296  and  _298
REMARK  122  A    between atoms: _298  and  _299
REMARK  123  A    between atoms: _298  and  _301
REMARK  124  A    between atoms: _301  and  _302
REMARK  125  A    between atoms: _305  and  _307
REMARK  126  A    between atoms: _307  and  _308
REMARK  127  A    between atoms: _307  and  _310
REMARK  128  A    between atoms: _310  and  _311
REMARK  129  A    between atoms: _314  and  _316
REMARK  130  A    between atoms: _316  and  _317
REMARK  131  A    between atoms: _316  and  _319
REMARK  132  A    between atoms: _319  and  _320
REMARK  133  A    between atoms: _325  and  _327
REMARK  134  A    between atoms: _327  and  _328
REMARK  135  A    between atoms: _327  and  _330
REMARK  136  A    between atoms: _330  and  _331
REMARK  137  A    between atoms: _331  and  _333
REMARK  138  A    between atoms: _333  and  ZN_877
REMARK  139  A    between atoms: _334  and  _336
REMARK  140  A    between atoms: _336  and  _337
REMARK  141  A    between atoms: _336  and  _339
REMARK  142  A    between atoms: _339  and  _340
REMARK  143  A    between atoms: _342  and  _344
REMARK  144  A    between atoms: _344  and  _345
REMARK  145  A    between atoms: _344  and  _347
REMARK  146  A    between atoms: _347  and  _348
REMARK  147  A    between atoms: _350  and  _352
REMARK  148  A    between atoms: _352  and  _353
REMARK  149  A    between atoms: _352  and  _355
REMARK  150  A    between atoms: _355  and  _356
REMARK  151  A    between atoms: _359  and  _361
REMARK  152  A    between atoms: _361  and  _362
REMARK  153  A    between atoms: _361  and  _364
REMARK  154  A    between atoms: _364  and  _365
REMARK  155  A    between atoms: _365  and  _366
REMARK  156  A    between atoms: _369  and  _371
REMARK  157  A    between atoms: _371  and  _372
REMARK  158  A    between atoms: _371  and  _374
REMARK  159  A    between atoms: _374  and  _375
REMARK  160  A    between atoms: _380  and  _381
REMARK  161  A    between atoms: _383  and  _385
REMARK  162  A    between atoms: _385  and  _386
REMARK  163  A    between atoms: _385  and  _388
REMARK  164  A    between atoms: _388  and  _389
REMARK  165  A    between atoms: _392  and  _394
REMARK  166  A    between atoms: _394  and  _395
REMARK  167  A    between atoms: _394  and  _397
REMARK  168  A    between atoms: _397  and  _398
REMARK  169  A    between atoms: _401  and  _403
REMARK  170  A    between atoms: _403  and  _404
REMARK  171  A    between atoms: _403  and  _406
REMARK  172  A    between atoms: _406  and  _407
REMARK  173  A    between atoms: _407  and  _408
REMARK  174  A    between atoms: _408  and  _409
REMARK  175  A    between atoms: _418  and  _420
REMARK  176  A    between atoms: _420  and  _421
REMARK  177  A    between atoms: _420  and  _423
REMARK  178  A    between atoms: _426  and  _428
REMARK  179  A    between atoms: _428  and  _429
REMARK  180  A    between atoms: _428  and  _431
REMARK  181  A    between atoms: _431  and  _432
REMARK  182  A    between atoms: _435  and  _437
REMARK  183  A    between atoms: _437  and  _438
REMARK  184  A    between atoms: _437  and  _440
REMARK  185  A    between atoms: _440  and  _441
REMARK  186  A    between atoms: _451  and  _453
REMARK  187  A    between atoms: _453  and  _454
REMARK  188  A    between atoms: _453  and  _456
REMARK  189  A    between atoms: _456  and  _457
REMARK  190  A    between atoms: _457  and  _458
REMARK  191  A    between atoms: _458  and  _459
REMARK  192  A    between atoms: _459  and  _460
REMARK  193  A    between atoms: _464  and  _466
REMARK  194  A    between atoms: _466  and  _467
REMARK  195  A    between atoms: _466  and  _469
REMARK  196  A    between atoms: _469  and  _470
REMARK  197  A    between atoms: _473  and  _474
REMARK  198  A    between atoms: _479  and  _481
REMARK  199  A    between atoms: _481  and  _482
REMARK  200  A    between atoms: _481  and  _484
REMARK  201  A    between atoms: _484  and  _485
REMARK  202  A    between atoms: _485  and  _486
REMARK  203  A    between atoms: _486  and  _487
REMARK  204  A    between atoms: _496  and  _498
REMARK  205  A    between atoms: _498  and  _499
REMARK  206  A    between atoms: _498  and  _501
REMARK  207  A    between atoms: _501  and  _502
REMARK  208  A    between atoms: _505  and  _507
REMARK  209  A    between atoms: _507  and  _508
REMARK  210  A    between atoms: _507  and  _510
REMARK  211  A    between atoms: _510  and  _511
REMARK  212  A    between atoms: _513  and  _515
REMARK  213  A    between atoms: _515  and  _516
REMARK  214  A    between atoms: _515  and  _518
REMARK  215  A    between atoms: _518  and  _519
REMARK  216  A    between atoms: _519  and  _520
REMARK  217  A    between atoms: _520  and  _521
REMARK  218  A    between atoms: _521  and  _522
REMARK  219  A    between atoms: _526  and  _528
REMARK  220  A    between atoms: _528  and  _529
REMARK  221  A    between atoms: _528  and  _531
REMARK  222  A    between atoms: _531  and  _532
REMARK  223  A    between atoms: _535  and  _537
REMARK  224  A    between atoms: _537  and  _538
REMARK  225  A    between atoms: _540  and  _542
REMARK  226  A    between atoms: _542  and  _543
REMARK  227  A    between atoms: _542  and  _545
REMARK  228  A    between atoms: _545  and  _546
REMARK  229  A    between atoms: _548  and  _550
REMARK  230  A    between atoms: _550  and  _551
REMARK  231  A    between atoms: _553  and  _555
REMARK  232  A    between atoms: _555  and  _556
REMARK  233  A    between atoms: _555  and  _558
REMARK  234  A    between atoms: _558  and  _559
REMARK  235  A    between atoms: _564  and  _566
REMARK  236  A    between atoms: _566  and  _567
REMARK  237  A    between atoms: _566  and  _569
REMARK  238  A    between atoms: _569  and  _570
REMARK  239  A    between atoms: _573  and  _575
REMARK  240  A    between atoms: _575  and  _576
REMARK  241  A    between atoms: _575  and  _578
REMARK  242  A    between atoms: _578  and  _579
REMARK  243  A    between atoms: _585  and  _587
REMARK  244  A    between atoms: _587  and  _588
REMARK  245  A    between atoms: _587  and  _590
REMARK  246  A    between atoms: _590  and  _591
REMARK  247  A    between atoms: _591  and  _592
REMARK  248  A    between atoms: _595  and  _597
REMARK  249  A    between atoms: _597  and  _598
REMARK  250  A    between atoms: _597  and  _600
REMARK  251  A    between atoms: _600  and  _601
REMARK  252  A    between atoms: _601  and  _602
REMARK  253  A    between atoms: _602  and  _603
REMARK  254  A    between atoms: _612  and  _614
REMARK  255  A    between atoms: _614  and  _615
REMARK  256  A    between atoms: _614  and  _617
REMARK  257  A    between atoms: _617  and  _618
REMARK  258  A    between atoms: _618  and  _619
REMARK  259  A    between atoms: _619  and  _620
REMARK  260  A    between atoms: _629  and  _631
REMARK  261  A    between atoms: _631  and  _632
REMARK  262  A    between atoms: _631  and  _634
REMARK  263  A    between atoms: _634  and  _635
REMARK  264  A    between atoms: _640  and  _641
REMARK  265  A    between atoms: _643  and  _645
REMARK  266  A    between atoms: _645  and  _646
REMARK  267  A    between atoms: _645  and  _648
REMARK  268  A    between atoms: _648  and  _649
REMARK  269  A    between atoms: _652  and  _654
REMARK  270  A    between atoms: _654  and  _655
REMARK  271  A    between atoms: _654  and  _657
REMARK  272  A    between atoms: _657  and  _658
REMARK  273  A    between atoms: _658  and  _659
REMARK  274  A    between atoms: _659  and  _660
REMARK  275  A    between atoms: _660  and  _661
REMARK  276  A    between atoms: _665  and  _667
REMARK  277  A    between atoms: _667  and  _668
REMARK  278  A    between atoms: _667  and  _670
REMARK  279  A    between atoms: _670  and  _671
REMARK  280  A    between atoms: _676  and  _678
REMARK  281  A    between atoms: _678  and  _679
REMARK  282  A    between atoms: _678  and  _681
REMARK  283  A    between atoms: _681  and  _682
REMARK  284  A    between atoms: _692  and  _694
REMARK  285  A    between atoms: _694  and  _695
REMARK  286  A    between atoms: _694  and  _697
REMARK  287  A    between atoms: _697  and  _698
REMARK  288  A    between atoms: _698  and  _699
REMARK  289  A    between atoms: _702  and  _704
REMARK  290  A    between atoms: _704  and  _705
REMARK  291  A    between atoms: _704  and  _707
REMARK  292  A    between atoms: _707  and  _708
REMARK  293  A    between atoms: _711  and  _713
REMARK  294  A    between atoms: _713  and  _714
REMARK  295  A    between atoms: _713  and  _716
REMARK  296  A    between atoms: _716  and  _717
REMARK  297  A    between atoms: _722  and  _724
REMARK  298  A    between atoms: _724  and  _725
REMARK  299  A    between atoms: _724  and  _727
REMARK  300  A    between atoms: _727  and  _728
REMARK  301  A    between atoms: _734  and  _736
REMARK  302  A    between atoms: _736  and  _737
REMARK  303  A    between atoms: _736  and  _739
REMARK  304  A    between atoms: _739  and  _740
REMARK  305  A    between atoms: _742  and  _744
REMARK  306  A    between atoms: _744  and  _745
REMARK  307  A    between atoms: _747  and  _749
REMARK  308  A    between atoms: _749  and  _750
REMARK  309  A    between atoms: _749  and  _752
REMARK  310  A    between atoms: _752  and  _753
REMARK  311  A    between atoms: _758  and  _759
REMARK  312  A    between atoms: _761  and  _763
REMARK  313  A    between atoms: _763  and  _764
REMARK  314  A    between atoms: _763  and  _766
REMARK  315  A    between atoms: _766  and  _767
REMARK  316  A    between atoms: _772  and  _773
REMARK  317  A    between atoms: _775  and  _777
REMARK  318  A    between atoms: _777  and  _778
REMARK  319  A    between atoms: _777  and  _780
REMARK  320  A    between atoms: _780  and  _781
REMARK  321  A    between atoms: _785  and  ZN_876
REMARK  322  A    between atoms: _786  and  _788
REMARK  323  A    between atoms: _788  and  _789
REMARK  324  A    between atoms: _788  and  _791
REMARK  325  A    between atoms: _791  and  _792
REMARK  326  A    between atoms: _792  and  _793
REMARK  327  A    between atoms: _796  and  _798
REMARK  328  A    between atoms: _798  and  _799
REMARK  329  A    between atoms: _798  and  _801
REMARK  330  A    between atoms: _801  and  _802
REMARK  331  A    between atoms: _802  and  _803
REMARK  332  A    between atoms: _803  and  _804
REMARK  333  A    between atoms: _813  and  _815
REMARK  334  A    between atoms: _815  and  _816
REMARK  335  A    between atoms: _815  and  _818
REMARK  336  A    between atoms: _818  and  _819
REMARK  337  A    between atoms: _824  and  _825
REMARK  338  A    between atoms: _827  and  _829
REMARK  339  A    between atoms: _829  and  _830
REMARK  340  A    between atoms: _829  and  _832
REMARK  341  A    between atoms: _832  and  _833
REMARK  342  A    between atoms: _838  and  _840
REMARK  343  A    between atoms: _840  and  _841
REMARK  344  A    between atoms: _840  and  _843
REMARK  345  A    between atoms: _843  and  _844
REMARK  346  A    between atoms: _844  and  _845
REMARK  347  A    between atoms: _845  and  _846
REMARK  348  A    between atoms: _846  and  _847
REMARK  349  A    between atoms: _851  and  _853
REMARK  350  A    between atoms: _853  and  _854
REMARK  351  A    between atoms: _853  and  _856
REMARK  352  A    between atoms: _856  and  _857
REMARK  353  A    between atoms: _862  and  _863
REMARK  354  A    between atoms: _865  and  _867
REMARK  355  A    between atoms: _867  and  _868
REMARK  356  A    between atoms: _871  and  _873
REMARK  357  A    between atoms: _873  and  _874
REMARK                            x       y       z     vdW  Elec       q    Type
REMARK                         _______ _______ _______ _____ _____    ______ ____
ROOT
ATOM      1  CG  TRP A   1      31.570  52.524  58.279  0.00  0.00    -0.002 A 
ATOM      2  CD2 TRP A   1      30.411  53.323  58.528  0.00  0.00    +0.013 A 
ATOM      3  CE3 TRP A   1      29.783  53.789  59.705  0.00  0.00    +0.001 A 
ATOM      4  CZ3 TRP A   1      28.619  54.586  59.580  0.00  0.00    +0.000 A 
ATOM      5  CH2 TRP A   1      28.085  54.911  58.281  0.00  0.00    +0.001 A 
ATOM      6  CZ2 TRP A   1      28.675  54.460  57.120  0.00  0.00    +0.017 A 
ATOM      7  CE2 TRP A   1      29.851  53.671  57.259  0.00  0.00    +0.056 A 
ATOM      8  NE1 TRP A   1      30.629  53.084  56.301  0.00  0.00    -0.352 N 
ATOM      9  HE1 TRP A   1      30.468  53.143  55.275  0.00  0.00    +0.166 HD
ATOM     10  CD1 TRP A   1      31.665  52.398  56.911  0.00  0.00    +0.068 A 
ENDROOT
BRANCH   1  11
ATOM     11  CB  TRP A   1      32.472  51.922  59.328  0.00  0.00    +0.053 C 
BRANCH  11  12
ATOM     12  CA  TRP A   1      33.933  51.679  58.931  0.00  0.00    +0.137 C 
BRANCH  12  13
ATOM     13  N   TRP A   1      34.606  51.154  60.108  0.00  0.00    -0.239 NA
ATOM     14  H   TRP A   1      34.079  51.057  61.000  0.00  0.00    +0.142 HD
ENDBRANCH  12  13
BRANCH  12  15
ATOM     15  C   TRP A   1      34.594  52.984  58.434  0.00  0.00    +0.224 C 
ATOM     16  O   TRP A   1      34.803  53.157  57.219  0.00  0.00    -0.287 OA
ENDBRANCH  12  15
ENDBRANCH  11  12
ENDBRANCH   1  11
TORSDOF 4
REMARK  Name = ../refined-set-2016/2xei/2xei_pocket.pdb
REMARK  357 active torsions:
REMARK  status: ('A' for Active; 'I' for Inactive)
REMARK    1  A    between atoms: _1  and  _3
REMARK    2  A    between atoms: _3  and  _4
REMARK    3  A    between atoms: _7  and  _9
REMARK    4  A    between atoms: _9  and  _10
REMARK    5  A    between atoms: _9  and  _12
REMARK    6  A    between atoms: _12  and  _13
REMARK    7  A    between atoms: _19  and  _21
REMARK    8  A    between atoms: _21  and  _22
REMARK    9  A    between atoms: _24  and  _26
REMARK   10  A    between atoms: _26  and  _27
REMARK   11  A    between atoms: _26  and  _29
REMARK   12  A    between atoms: _29  and  _30
REMARK   13  A    between atoms: _30  and  _31
REMARK   14  A    between atoms: _31  and  _32
REMARK   15  A    between atoms: _32  and  _33
REMARK   16  A    between atoms: _37  and  _39
REMARK   17  A    between atoms: _39  and  _40
REMARK   18  A    between atoms: _39  and  _42
REMARK   19  A    between atoms: _45  and  _47
REMARK   20  A    between atoms: _47  and  _48
REMARK   21  A    between atoms: _47  and  _50
REMARK   22  A    between atoms: _50  and  _51
REMARK   23  A    between atoms: _57  and  _59
REMARK   24  A    between atoms: _59  and  _60
REMARK   25  A    between atoms: _59  and  _62
REMARK   26  A    between atoms: _62  and  _63
REMARK   27  A    between atoms: _63  and  _64
REMARK   28  A    between atoms: _64  and  _65
REMARK   29  A    between atoms: _74  and  _76
REMARK   30  A    between atoms: _76  and  _77
REMARK   31  A    between atoms: _79  and  _81
REMARK   32  A    between atoms: _81  and  _82
REMARK   33  A    between atoms: _81  and  _84
REMARK   34  A    between atoms: _84  and  _85
REMARK   35  A    between atoms: _90  and  _91
REMARK   36  A    between atoms: _93  and  _95
REMARK   37  A    between atoms: _95  and  _96
REMARK   38  A    between atoms: _95  and  _98
REMARK   39  A    between atoms: _98  and  _99
REMARK   40  A    between atoms: _99  and  _100
REMARK   41  A    between atoms: _105  and  _107
REMARK   42  A    between atoms: _107  and  _108
REMARK   43  A    between atoms: _107  and  _110
REMARK   44  A    between atoms: _110  and  _111
REMARK   45  A    between atoms: _111  and  _112
REMARK   46  A    between atoms: _112  and  _113
REMARK   47  A    between atoms: _122  and  _124
REMARK   48  A    between atoms: _124  and  _125
REMARK   49  A    between atoms: _127  and  _129
REMARK   50  A    between atoms: _129  and  _130
REMARK   51  A    between atoms: _129  and  _132
REMARK   52  A    between atoms: _132  and  _133
REMARK   53  A    between atoms: _138  and  _140
REMARK   54  A    between atoms: _140  and  _141
REMARK   55  A    between atoms: _140  and  _143
REMARK   56  A    between atoms: _143  and  _144
REMARK   57  A    between atoms: _147  and  _149
REMARK   58  A    between atoms: _149  and  _150
REMARK   59  A    between atoms: _149  and  _152
REMARK   60  A    between atoms: _152  and  _153
REMARK   61  A    between atoms: _156  and  _158
REMARK   62  A    between atoms: _158  and  _159
REMARK   63  A    between atoms: _158  and  _161
REMARK   64  A    between atoms: _161  and  _162
REMARK   65  A    between atoms: _167  and  _169
REMARK   66  A    between atoms: _169  and  _170
REMARK   67  A    between atoms: _169  and  _172
REMARK   68  A    between atoms: _172  and  _173
REMARK   69  A    between atoms: _176  and  _178
REMARK   70  A    between atoms: _178  and  _179
REMARK   71  A    between atoms: _178  and  _181
REMARK   72  A    between atoms: _181  and  _182
REMARK   73  A    between atoms: _187  and  _189
REMARK   74  A    between atoms: _189  and  _190
REMARK   75  A    between atoms: _192  and  _194
REMARK   76  A    between atoms: _194  and  _195
REMARK   77  A    between atoms: _194  and  _197
REMARK   78  A    between atoms: _197  and  _198
REMARK   79  A    between atoms: _202  and  ZN_877
REMARK   80  A    between atoms: _203  and  _205
REMARK   81  A    between atoms: _205  and  _206
REMARK   82  A    between atoms: _205  and  _208
REMARK   83  A    between atoms: _208  and  _209
REMARK   84  A    between atoms: _212  and  _214
REMARK   85  A    between atoms: _214  and  _215
REMARK   86  A    between atoms: _214  and  _217
REMARK   87  A    between atoms: _217  and  _218
REMARK   88  A    between atoms: _228  and  _230
REMARK   89  A    between atoms: _230  and  _231
REMARK   90  A    between atoms: _230  and  _233
REMARK   91  A    between atoms: _233  and  _234
REMARK   92  A    between atoms: _237  and  _239
REMARK   93  A    between atoms: _239  and  _240
REMARK   94  A    between atoms: _239  and  _242
REMARK   95  A    between atoms: _242  and  _243
REMARK   96  A    between atoms: _243  and  _244
REMARK   97  A    between atoms: _243  and  _245
REMARK   98  A    between atoms: _244  and  ZN_877
REMARK   99  A    between atoms: _245  and  ZN_876
REMARK  100  A    between atoms: _247  and  _248
REMARK  101  A    between atoms: _253  and  _255
REMARK  102  A    between atoms: _255  and  _256
REMARK  103  A    between atoms: _259  and  _261
REMARK  104  A    between atoms: _261  and  _262
REMARK  105  A    between atoms: _261  and  _264
REMARK  106  A    between atoms: _264  and  _265
REMARK  107  A    between atoms: _265  and  _266
REMARK  108  A    between atoms: _269  and  _271
REMARK  109  A    between atoms: _271  and  _272
REMARK  110  A    between atoms: _271  and  _274
REMARK  111  A    between atoms: _274  and  _275
REMARK  112  A    between atoms: _275  and  _276
REMARK  113  A    between atoms: _276  and  _278
REMARK  114  A    between atoms: _278  and  ZN_876
REMARK  115  A    between atoms: _279  and  _281
REMARK  116  A    between atoms: _281  and  _282
REMARK  117  A    between atoms: _281  and  _284
REMARK  118  A    between atoms: _284  and  _285
REMARK  119  A    between atoms: _291  and  _293
REMARK  120  A    between atoms: _293  and  _294
REMARK  121  A    between atoms: _296  and  _298
REMARK  122  A    between atoms: _298  and  _299
REMARK  123  A    between atoms: _298  and  _301
REMARK  124  A    between atoms: _301  and  _302
REMARK  125  A    between atoms: _305  and  _307
REMARK  126  A    between atoms: _307  and  _308
REMARK  127  A    between atoms: _307  and  _310
REMARK  128  A    between atoms: _310  and  _311
REMARK  129  A    between atoms: _314  and  _316
REMARK  130  A    between atoms: _316  and  _317
REMARK  131  A    between atoms: _316  and  _319
REMARK  132  A    between atoms: _319  and  _320
REMARK  133  A    between atoms: _325  and  _327
REMARK  134  A    between atoms: _327  and  _328
REMARK  135  A    between atoms: _327  and  _330
REMARK  136  A    between atoms: _330  and  _331
REMARK  137  A    between atoms: _331  and  _333
REMARK  138  A    between atoms: _333  and  ZN_877
REMARK  139  A    between atoms: _334  and  _336
REMARK  140  A    between atoms: _336  and  _337
REMARK  141  A    between atoms: _336  and  _339
REMARK  142  A    between atoms: _339  and  _340
REMARK  143  A    between atoms: _342  and  _344
REMARK  144  A    between atoms: _344  and  _345
REMARK  145  A    between atoms: _344  and  _347
REMARK  146  A    between atoms: _347  and  _348
REMARK  147  A    between atoms: _350  and  _352
REMARK  148  A    between atoms: _352  and  _353
REMARK  149  A    between atoms: _352  and  _355
REMARK  150  A    between atoms: _355  and  _356
REMARK  151  A    between atoms: _359  and  _361
REMARK  152  A    between atoms: _361  and  _362
REMARK  153  A    between atoms: _361  and  _364
REMARK  154  A    between atoms: _364  and  _365
REMARK  155  A    between atoms: _365  and  _366
REMARK  156  A    between atoms: _369  and  _371
REMARK  157  A    between atoms: _371  and  _372
REMARK  158  A    between atoms: _371  and  _374
REMARK  159  A    between atoms: _374  and  _375
REMARK  160  A    between atoms: _380  and  _381
REMARK  161  A    between atoms: _383  and  _385
REMARK  162  A    between atoms: _385  and  _386
REMARK  163  A    between atoms: _385  and  _388
REMARK  164  A    between atoms: _388  and  _389
REMARK  165  A    between atoms: _392  and  _394
REMARK  166  A    between atoms: _394  and  _395
REMARK  167  A    between atoms: _394  and  _397
REMARK  168  A    between atoms: _397  and  _398
REMARK  169  A    between atoms: _401  and  _403
REMARK  170  A    between atoms: _403  and  _404
REMARK  171  A    between atoms: _403  and  _406
REMARK  172  A    between atoms: _406  and  _407
REMARK  173  A    between atoms: _407  and  _408
REMARK  174  A    between atoms: _408  and  _409
REMARK  175  A    between atoms: _418  and  _420
REMARK  176  A    between atoms: _420  and  _421
REMARK  177  A    between atoms: _420  and  _423
REMARK  178  A    between atoms: _426  and  _428
REMARK  179  A    between atoms: _428  and  _429
REMARK  180  A    between atoms: _428  and  _431
REMARK  181  A    between atoms: _431  and  _432
REMARK  182  A    between atoms: _435  and  _437
REMARK  183  A    between atoms: _437  and  _438
REMARK  184  A    between atoms: _437  and  _440
REMARK  185  A    between atoms: _440  and  _441
REMARK  186  A    between atoms: _451  and  _453
REMARK  187  A    between atoms: _453  and  _454
REMARK  188  A    between atoms: _453  and  _456
REMARK  189  A    between atoms: _456  and  _457
REMARK  190  A    between atoms: _457  and  _458
REMARK  191  A    between atoms: _458  and  _459
REMARK  192  A    between atoms: _459  and  _460
REMARK  193  A    between atoms: _464  and  _466
REMARK  194  A    between atoms: _466  and  _467
REMARK  195  A    between atoms: _466  and  _469
REMARK  196  A    between atoms: _469  and  _470
REMARK  197  A    between atoms: _473  and  _474
REMARK  198  A    between atoms: _479  and  _481
REMARK  199  A    between atoms: _481  and  _482
REMARK  200  A    between atoms: _481  and  _484
REMARK  201  A    between atoms: _484  and  _485
REMARK  202  A    between atoms: _485  and  _486
REMARK  203  A    between atoms: _486  and  _487
REMARK  204  A    between atoms: _496  and  _498
REMARK  205  A    between atoms: _498  and  _499
REMARK  206  A    between atoms: _498  and  _501
REMARK  207  A    between atoms: _501  and  _502
REMARK  208  A    between atoms: _505  and  _507
REMARK  209  A    between atoms: _507  and  _508
REMARK  210  A    between atoms: _507  and  _510
REMARK  211  A    between atoms: _510  and  _511
REMARK  212  A    between atoms: _513  and  _515
REMARK  213  A    between atoms: _515  and  _516
REMARK  214  A    between atoms: _515  and  _518
REMARK  215  A    between atoms: _518  and  _519
REMARK  216  A    between atoms: _519  and  _520
REMARK  217  A    between atoms: _520  and  _521
REMARK  218  A    between atoms: _521  and  _522
REMARK  219  A    between atoms: _526  and  _528
REMARK  220  A    between atoms: _528  and  _529
REMARK  221  A    between atoms: _528  and  _531
REMARK  222  A    between atoms: _531  and  _532
REMARK  223  A    between atoms: _535  and  _537
REMARK  224  A    between atoms: _537  and  _538
REMARK  225  A    between atoms: _540  and  _542
REMARK  226  A    between atoms: _542  and  _543
REMARK  227  A    between atoms: _542  and  _545
REMARK  228  A    between atoms: _545  and  _546
REMARK  229  A    between atoms: _548  and  _550
REMARK  230  A    between atoms: _550  and  _551
REMARK  231  A    between atoms: _553  and  _555
REMARK  232  A    between atoms: _555  and  _556
REMARK  233  A    between atoms: _555  and  _558
REMARK  234  A    between atoms: _558  and  _559
REMARK  235  A    between atoms: _564  and  _566
REMARK  236  A    between atoms: _566  and  _567
REMARK  237  A    between atoms: _566  and  _569
REMARK  238  A    between atoms: _569  and  _570
REMARK  239  A    between atoms: _573  and  _575
REMARK  240  A    between atoms: _575  and  _576
REMARK  241  A    between atoms: _575  and  _578
REMARK  242  A    between atoms: _578  and  _579
REMARK  243  A    between atoms: _585  and  _587
REMARK  244  A    between atoms: _587  and  _588
REMARK  245  A    between atoms: _587  and  _590
REMARK  246  A    between atoms: _590  and  _591
REMARK  247  A    between atoms: _591  and  _592
REMARK  248  A    between atoms: _595  and  _597
REMARK  249  A    between atoms: _597  and  _598
REMARK  250  A    between atoms: _597  and  _600
REMARK  251  A    between atoms: _600  and  _601
REMARK  252  A    between atoms: _601  and  _602
REMARK  253  A    between atoms: _602  and  _603
REMARK  254  A    between atoms: _612  and  _614
REMARK  255  A    between atoms: _614  and  _615
REMARK  256  A    between atoms: _614  and  _617
REMARK  257  A    between atoms: _617  and  _618
REMARK  258  A    between atoms: _618  and  _619
REMARK  259  A    between atoms: _619  and  _620
REMARK  260  A    between atoms: _629  and  _631
REMARK  261  A    between atoms: _631  and  _632
REMARK  262  A    between atoms: _631  and  _634
REMARK  263  A    between atoms: _634  and  _635
REMARK  264  A    between atoms: _640  and  _641
REMARK  265  A    between atoms: _643  and  _645
REMARK  266  A    between atoms: _645  and  _646
REMARK  267  A    between atoms: _645  and  _648
REMARK  268  A    between atoms: _648  and  _649
REMARK  269  A    between atoms: _652  and  _654
REMARK  270  A    between atoms: _654  and  _655
REMARK  271  A    between atoms: _654  and  _657
REMARK  272  A    between atoms: _657  and  _658
REMARK  273  A    between atoms: _658  and  _659
REMARK  274  A    between atoms: _659  and  _660
REMARK  275  A    between atoms: _660  and  _661
REMARK  276  A    between atoms: _665  and  _667
REMARK  277  A    between atoms: _667  and  _668
REMARK  278  A    between atoms: _667  and  _670
REMARK  279  A    between atoms: _670  and  _671
REMARK  280  A    between atoms: _676  and  _678
REMARK  281  A    between atoms: _678  and  _679
REMARK  282  A    between atoms: _678  and  _681
REMARK  283  A    between atoms: _681  and  _682
REMARK  284  A    between atoms: _692  and  _694
REMARK  285  A    between atoms: _694  and  _695
REMARK  286  A    between atoms: _694  and  _697
REMARK  287  A    between atoms: _697  and  _698
REMARK  288  A    between atoms: _698  and  _699
REMARK  289  A    between atoms: _702  and  _704
REMARK  290  A    between atoms: _704  and  _705
REMARK  291  A    between atoms: _704  and  _707
REMARK  292  A    between atoms: _707  and  _708
REMARK  293  A    between atoms: _711  and  _713
REMARK  294  A    between atoms: _713  and  _714
REMARK  295  A    between atoms: _713  and  _716
REMARK  296  A    between atoms: _716  and  _717
REMARK  297  A    between atoms: _722  and  _724
REMARK  298  A    between atoms: _724  and  _725
REMARK  299  A    between atoms: _724  and  _727
REMARK  300  A    between atoms: _727  and  _728
REMARK  301  A    between atoms: _734  and  _736
REMARK  302  A    between atoms: _736  and  _737
REMARK  303  A    between atoms: _736  and  _739
REMARK  304  A    between atoms: _739  and  _740
REMARK  305  A    between atoms: _742  and  _744
REMARK  306  A    between atoms: _744  and  _745
REMARK  307  A    between atoms: _747  and  _749
REMARK  308  A    between atoms: _749  and  _750
REMARK  309  A    between atoms: _749  and  _752
REMARK  310  A    between atoms: _752  and  _753
REMARK  311  A    between atoms: _758  and  _759
REMARK  312  A    between atoms: _761  and  _763
REMARK  313  A    between atoms: _763  and  _764
REMARK  314  A    between atoms: _763  and  _766
REMARK  315  A    between atoms: _766  and  _767
REMARK  316  A    between atoms: _772  and  _773
REMARK  317  A    between atoms: _775  and  _777
REMARK  318  A    between atoms: _777  and  _778
REMARK  319  A    between atoms: _777  and  _780
REMARK  320  A    between atoms: _780  and  _781
REMARK  321  A    between atoms: _785  and  ZN_876
REMARK  322  A    between atoms: _786  and  _788
REMARK  323  A    between atoms: _788  and  _789
REMARK  324  A    between atoms: _788  and  _791
REMARK  325  A    between atoms: _791  and  _792
REMARK  326  A    between atoms: _792  and  _793
REMARK  327  A    between atoms: _796  and  _798
REMARK  328  A    between atoms: _798  and  _799
REMARK  329  A    between atoms: _798  and  _801
REMARK  330  A    between atoms: _801  and  _802
REMARK  331  A    between atoms: _802  and  _803
REMARK  332  A    between atoms: _803  and  _804
REMARK  333  A    between atoms: _813  and  _815
REMARK  334  A    between atoms: _815  and  _816
REMARK  335  A    between atoms: _815  and  _818
REMARK  336  A    between atoms: _818  and  _819
REMARK  337  A    between atoms: _824  and  _825
REMARK  338  A    between atoms: _827  and  _829
REMARK  339  A    between atoms: _829  and  _830
REMARK  340  A    between atoms: _829  and  _832
REMARK  341  A    between atoms: _832  and  _833
REMARK  342  A    between atoms: _838  and  _840
REMARK  343  A    between atoms: _840  and  _841
REMARK  344  A    between atoms: _840  and  _843
REMARK  345  A    between atoms: _843  and  _844
REMARK  346  A    between atoms: _844  and  _845
REMARK  347  A    between atoms: _845  and  _846
REMARK  348  A    between atoms: _846  and  _847
REMARK  349  A    between atoms: _851  and  _853
REMARK  350  A    between atoms: _853  and  _854
REMARK  351  A    between atoms: _853  and  _856
REMARK  352  A    between atoms: _856  and  _857
REMARK  353  A    between atoms: _862  and  _863
REMARK  354  A    between atoms: _865  and  _867
REMARK  355  A    between atoms: _867  and  _868
REMARK  356  A    between atoms: _871  and  _873
REMARK  357  A    between atoms: _873  and  _874
REMARK                            x       y       z     vdW  Elec       q    Type
REMARK                         _______ _______ _______ _____ _____    ______ ____
ROOT
ATOM      1  C   LYS A   1      37.189  52.282  54.475  0.00  0.00    +0.238 C 
ATOM      2  N   SER A   2      36.256  53.166  54.841  0.00  0.00    -0.295 N 
ATOM      3  H   SER A   2      36.134  53.373  55.853  0.00  0.00    +0.150 HD
ATOM      4  O   LYS A   1      37.439  51.998  53.296  0.00  0.00    -0.274 OA
ENDROOT
BRANCH   1   5
ATOM      5  CA  LYS A   1      37.944  51.552  55.575  0.00  0.00    +0.145 C 
BRANCH   5   6
ATOM      6  N   LYS A   1      38.015  52.244  56.891  0.00  0.00    -0.238 NA
ATOM      7  H   LYS A   1      37.360  51.962  57.648  0.00  0.00    +0.142 HD
ENDBRANCH   5   6
BRANCH   5   8
ATOM      8  CB  LYS A   1      37.382  50.151  55.741  0.00  0.00    +0.026 C 
BRANCH   8   9
ATOM      9  CG  LYS A   1      38.257  49.224  56.616  0.00  0.00    -0.000 C 
BRANCH   9  10
ATOM     10  CD  LYS A   1      37.568  47.879  56.815  0.00  0.00    -0.024 C 
BRANCH  10  11
ATOM     11  CE  LYS A   1      38.430  46.807  57.446  0.00  0.00    -0.086 C 
BRANCH  11  12
ATOM     12  NZ  LYS A   1      37.705  45.466  57.438  0.00  0.00    +0.380 N 
ATOM     13  HZ1 LYS A   1      36.819  45.549  57.977  0.00  0.00    -0.089 HD
ATOM     14  HZ2 LYS A   1      38.311  44.743  57.875  0.00  0.00    -0.089 HD
ATOM     15  HZ3 LYS A   1      37.491  45.195  56.457  0.00  0.00    -0.089 HD
ENDBRANCH  11  12
ENDBRANCH  10  11
ENDBRANCH   9  10
ENDBRANCH   8   9
ENDBRANCH   5   8
ENDBRANCH   1   5
BRANCH   2  16
ATOM     16  CA  SER A   2      35.406  53.849  53.882  0.00  0.00    +0.178 C 
BRANCH  16  17
ATOM     17  C   SER A   2      35.253  55.329  54.233  0.00  0.00    +0.246 C 
ATOM     18  O   SER A   2      34.166  55.792  54.611  0.00  0.00    -0.273 OA
ATOM     19  N   PRO A   3      36.365  56.088  54.158  0.00  0.00    -0.273 N 
ATOM     20  CA  PRO A   3      36.327  57.495  54.545  0.00  0.00    +0.140 C 
ATOM     21  CB  PRO A   3      37.764  57.975  54.287  0.00  0.00    +0.030 C 
ATOM     22  CG  PRO A   3      38.376  56.912  53.389  0.00  0.00    +0.024 C 
ATOM     23  CD  PRO A   3      37.711  55.636  53.775  0.00  0.00    +0.094 C 
BRANCH  20  24
ATOM     24  C   PRO A   3      35.375  58.286  53.677  0.00  0.00    +0.227 C 
ATOM     25  O   PRO A   3      35.265  58.025  52.476  0.00  0.00    -0.286 OA
ENDBRANCH  20  24
ENDBRANCH  16  17
BRANCH  16  26
ATOM     26  CB  SER A   2      34.034  53.197  53.921  0.00  0.00    +0.166 C 
BRANCH  26  27
ATOM     27  OG  SER A   2      33.361  53.531  52.752  0.00  0.00    -0.380 OA
ATOM     28  H   SER A   2      32.463  53.114  52.759  0.00  0.00    +0.211 HD
ENDBRANCH  26  27
ENDBRANCH  16  26
ENDBRANCH   2  16
TORSDOF 12
REMARK  Name = ../refined-set-2016/2xei/2xei_pocket.pdb
REMARK  357 active torsions:
REMARK  status: ('A' for Active; 'I' for Inactive)
REMARK    1  A    between atoms: _1  and  _3
REMARK    2  A    between atoms: _3  and  _4
REMARK    3  A    between atoms: _7  and  _9
REMARK    4  A    between atoms: _9  and  _10
REMARK    5  A    between atoms: _9  and  _12
REMARK    6  A    between atoms: _12  and  _13
REMARK    7  A    between atoms: _19  and  _21
REMARK    8  A    between atoms: _21  and  _22
REMARK    9  A    between atoms: _24  and  _26
REMARK   10  A    between atoms: _26  and  _27
REMARK   11  A    between atoms: _26  and  _29
REMARK   12  A    between atoms: _29  and  _30
REMARK   13  A    between atoms: _30  and  _31
REMARK   14  A    between atoms: _31  and  _32
REMARK   15  A    between atoms: _32  and  _33
REMARK   16  A    between atoms: _37  and  _39
REMARK   17  A    between atoms: _39  and  _40
REMARK   18  A    between atoms: _39  and  _42
REMARK   19  A    between atoms: _45  and  _47
REMARK   20  A    between atoms: _47  and  _48
REMARK   21  A    between atoms: _47  and  _50
REMARK   22  A    between atoms: _50  and  _51
REMARK   23  A    between atoms: _57  and  _59
REMARK   24  A    between atoms: _59  and  _60
REMARK   25  A    between atoms: _59  and  _62
REMARK   26  A    between atoms: _62  and  _63
REMARK   27  A    between atoms: _63  and  _64
REMARK   28  A    between atoms: _64  and  _65
REMARK   29  A    between atoms: _74  and  _76
REMARK   30  A    between atoms: _76  and  _77
REMARK   31  A    between atoms: _79  and  _81
REMARK   32  A    between atoms: _81  and  _82
REMARK   33  A    between atoms: _81  and  _84
REMARK   34  A    between atoms: _84  and  _85
REMARK   35  A    between atoms: _90  and  _91
REMARK   36  A    between atoms: _93  and  _95
REMARK   37  A    between atoms: _95  and  _96
REMARK   38  A    between atoms: _95  and  _98
REMARK   39  A    between atoms: _98  and  _99
REMARK   40  A    between atoms: _99  and  _100
REMARK   41  A    between atoms: _105  and  _107
REMARK   42  A    between atoms: _107  and  _108
REMARK   43  A    between atoms: _107  and  _110
REMARK   44  A    between atoms: _110  and  _111
REMARK   45  A    between atoms: _111  and  _112
REMARK   46  A    between atoms: _112  and  _113
REMARK   47  A    between atoms: _122  and  _124
REMARK   48  A    between atoms: _124  and  _125
REMARK   49  A    between atoms: _127  and  _129
REMARK   50  A    between atoms: _129  and  _130
REMARK   51  A    between atoms: _129  and  _132
REMARK   52  A    between atoms: _132  and  _133
REMARK   53  A    between atoms: _138  and  _140
REMARK   54  A    between atoms: _140  and  _141
REMARK   55  A    between atoms: _140  and  _143
REMARK   56  A    between atoms: _143  and  _144
REMARK   57  A    between atoms: _147  and  _149
REMARK   58  A    between atoms: _149  and  _150
REMARK   59  A    between atoms: _149  and  _152
REMARK   60  A    between atoms: _152  and  _153
REMARK   61  A    between atoms: _156  and  _158
REMARK   62  A    between atoms: _158  and  _159
REMARK   63  A    between atoms: _158  and  _161
REMARK   64  A    between atoms: _161  and  _162
REMARK   65  A    between atoms: _167  and  _169
REMARK   66  A    between atoms: _169  and  _170
REMARK   67  A    between atoms: _169  and  _172
REMARK   68  A    between atoms: _172  and  _173
REMARK   69  A    between atoms: _176  and  _178
REMARK   70  A    between atoms: _178  and  _179
REMARK   71  A    between atoms: _178  and  _181
REMARK   72  A    between atoms: _181  and  _182
REMARK   73  A    between atoms: _187  and  _189
REMARK   74  A    between atoms: _189  and  _190
REMARK   75  A    between atoms: _192  and  _194
REMARK   76  A    between atoms: _194  and  _195
REMARK   77  A    between atoms: _194  and  _197
REMARK   78  A    between atoms: _197  and  _198
REMARK   79  A    between atoms: _202  and  ZN_877
REMARK   80  A    between atoms: _203  and  _205
REMARK   81  A    between atoms: _205  and  _206
REMARK   82  A    between atoms: _205  and  _208
REMARK   83  A    between atoms: _208  and  _209
REMARK   84  A    between atoms: _212  and  _214
REMARK   85  A    between atoms: _214  and  _215
REMARK   86  A    between atoms: _214  and  _217
REMARK   87  A    between atoms: _217  and  _218
REMARK   88  A    between atoms: _228  and  _230
REMARK   89  A    between atoms: _230  and  _231
REMARK   90  A    between atoms: _230  and  _233
REMARK   91  A    between atoms: _233  and  _234
REMARK   92  A    between atoms: _237  and  _239
REMARK   93  A    between atoms: _239  and  _240
REMARK   94  A    between atoms: _239  and  _242
REMARK   95  A    between atoms: _242  and  _243
REMARK   96  A    between atoms: _243  and  _244
REMARK   97  A    between atoms: _243  and  _245
REMARK   98  A    between atoms: _244  and  ZN_877
REMARK   99  A    between atoms: _245  and  ZN_876
REMARK  100  A    between atoms: _247  and  _248
REMARK  101  A    between atoms: _253  and  _255
REMARK  102  A    between atoms: _255  and  _256
REMARK  103  A    between atoms: _259  and  _261
REMARK  104  A    between atoms: _261  and  _262
REMARK  105  A    between atoms: _261  and  _264
REMARK  106  A    between atoms: _264  and  _265
REMARK  107  A    between atoms: _265  and  _266
REMARK  108  A    between atoms: _269  and  _271
REMARK  109  A    between atoms: _271  and  _272
REMARK  110  A    between atoms: _271  and  _274
REMARK  111  A    between atoms: _274  and  _275
REMARK  112  A    between atoms: _275  and  _276
REMARK  113  A    between atoms: _276  and  _278
REMARK  114  A    between atoms: _278  and  ZN_876
REMARK  115  A    between atoms: _279  and  _281
REMARK  116  A    between atoms: _281  and  _282
REMARK  117  A    between atoms: _281  and  _284
REMARK  118  A    between atoms: _284  and  _285
REMARK  119  A    between atoms: _291  and  _293
REMARK  120  A    between atoms: _293  and  _294
REMARK  121  A    between atoms: _296  and  _298
REMARK  122  A    between atoms: _298  and  _299
REMARK  123  A    between atoms: _298  and  _301
REMARK  124  A    between atoms: _301  and  _302
REMARK  125  A    between atoms: _305  and  _307
REMARK  126  A    between atoms: _307  and  _308
REMARK  127  A    between atoms: _307  and  _310
REMARK  128  A    between atoms: _310  and  _311
REMARK  129  A    between atoms: _314  and  _316
REMARK  130  A    between atoms: _316  and  _317
REMARK  131  A    between atoms: _316  and  _319
REMARK  132  A    between atoms: _319  and  _320
REMARK  133  A    between atoms: _325  and  _327
REMARK  134  A    between atoms: _327  and  _328
REMARK  135  A    between atoms: _327  and  _330
REMARK  136  A    between atoms: _330  and  _331
REMARK  137  A    between atoms: _331  and  _333
REMARK  138  A    between atoms: _333  and  ZN_877
REMARK  139  A    between atoms: _334  and  _336
REMARK  140  A    between atoms: _336  and  _337
REMARK  141  A    between atoms: _336  and  _339
REMARK  142  A    between atoms: _339  and  _340
REMARK  143  A    between atoms: _342  and  _344
REMARK  144  A    between atoms: _344  and  _345
REMARK  145  A    between atoms: _344  and  _347
REMARK  146  A    between atoms: _347  and  _348
REMARK  147  A    between atoms: _350  and  _352
REMARK  148  A    between atoms: _352  and  _353
REMARK  149  A    between atoms: _352  and  _355
REMARK  150  A    between atoms: _355  and  _356
REMARK  151  A    between atoms: _359  and  _361
REMARK  152  A    between atoms: _361  and  _362
REMARK  153  A    between atoms: _361  and  _364
REMARK  154  A    between atoms: _364  and  _365
REMARK  155  A    between atoms: _365  and  _366
REMARK  156  A    between atoms: _369  and  _371
REMARK  157  A    between atoms: _371  and  _372
REMARK  158  A    between atoms: _371  and  _374
REMARK  159  A    between atoms: _374  and  _375
REMARK  160  A    between atoms: _380  and  _381
REMARK  161  A    between atoms: _383  and  _385
REMARK  162  A    between atoms: _385  and  _386
REMARK  163  A    between atoms: _385  and  _388
REMARK  164  A    between atoms: _388  and  _389
REMARK  165  A    between atoms: _392  and  _394
REMARK  166  A    between atoms: _394  and  _395
REMARK  167  A    between atoms: _394  and  _397
REMARK  168  A    between atoms: _397  and  _398
REMARK  169  A    between atoms: _401  and  _403
REMARK  170  A    between atoms: _403  and  _404
REMARK  171  A    between atoms: _403  and  _406
REMARK  172  A    between atoms: _406  and  _407
REMARK  173  A    between atoms: _407  and  _408
REMARK  174  A    between atoms: _408  and  _409
REMARK  175  A    between atoms: _418  and  _420
REMARK  176  A    between atoms: _420  and  _421
REMARK  177  A    between atoms: _420  and  _423
REMARK  178  A    between atoms: _426  and  _428
REMARK  179  A    between atoms: _428  and  _429
REMARK  180  A    between atoms: _428  and  _431
REMARK  181  A    between atoms: _431  and  _432
REMARK  182  A    between atoms: _435  and  _437
REMARK  183  A    between atoms: _437  and  _438
REMARK  184  A    between atoms: _437  and  _440
REMARK  185  A    between atoms: _440  and  _441
REMARK  186  A    between atoms: _451  and  _453
REMARK  187  A    between atoms: _453  and  _454
REMARK  188  A    between atoms: _453  and  _456
REMARK  189  A    between atoms: _456  and  _457
REMARK  190  A    between atoms: _457  and  _458
REMARK  191  A    between atoms: _458  and  _459
REMARK  192  A    between atoms: _459  and  _460
REMARK  193  A    between atoms: _464  and  _466
REMARK  194  A    between atoms: _466  and  _467
REMARK  195  A    between atoms: _466  and  _469
REMARK  196  A    between atoms: _469  and  _470
REMARK  197  A    between atoms: _473  and  _474
REMARK  198  A    between atoms: _479  and  _481
REMARK  199  A    between atoms: _481  and  _482
REMARK  200  A    between atoms: _481  and  _484
REMARK  201  A    between atoms: _484  and  _485
REMARK  202  A    between atoms: _485  and  _486
REMARK  203  A    between atoms: _486  and  _487
REMARK  204  A    between atoms: _496  and  _498
REMARK  205  A    between atoms: _498  and  _499
REMARK  206  A    between atoms: _498  and  _501
REMARK  207  A    between atoms: _501  and  _502
REMARK  208  A    between atoms: _505  and  _507
REMARK  209  A    between atoms: _507  and  _508
REMARK  210  A    between atoms: _507  and  _510
REMARK  211  A    between atoms: _510  and  _511
REMARK  212  A    between atoms: _513  and  _515
REMARK  213  A    between atoms: _515  and  _516
REMARK  214  A    between atoms: _515  and  _518
REMARK  215  A    between atoms: _518  and  _519
REMARK  216  A    between atoms: _519  and  _520
REMARK  217  A    between atoms: _520  and  _521
REMARK  218  A    between atoms: _521  and  _522
REMARK  219  A    between atoms: _526  and  _528
REMARK  220  A    between atoms: _528  and  _529
REMARK  221  A    between atoms: _528  and  _531
REMARK  222  A    between atoms: _531  and  _532
REMARK  223  A    between atoms: _535  and  _537
REMARK  224  A    between atoms: _537  and  _538
REMARK  225  A    between atoms: _540  and  _542
REMARK  226  A    between atoms: _542  and  _543
REMARK  227  A    between atoms: _542  and  _545
REMARK  228  A    between atoms: _545  and  _546
REMARK  229  A    between atoms: _548  and  _550
REMARK  230  A    between atoms: _550  and  _551
REMARK  231  A    between atoms: _553  and  _555
REMARK  232  A    between atoms: _555  and  _556
REMARK  233  A    between atoms: _555  and  _558
REMARK  234  A    between atoms: _558  and  _559
REMARK  235  A    between atoms: _564  and  _566
REMARK  236  A    between atoms: _566  and  _567
REMARK  237  A    between atoms: _566  and  _569
REMARK  238  A    between atoms: _569  and  _570
REMARK  239  A    between atoms: _573  and  _575
REMARK  240  A    between atoms: _575  and  _576
REMARK  241  A    between atoms: _575  and  _578
REMARK  242  A    between atoms: _578  and  _579
REMARK  243  A    between atoms: _585  and  _587
REMARK  244  A    between atoms: _587  and  _588
REMARK  245  A    between atoms: _587  and  _590
REMARK  246  A    between atoms: _590  and  _591
REMARK  247  A    between atoms: _591  and  _592
REMARK  248  A    between atoms: _595  and  _597
REMARK  249  A    between atoms: _597  and  _598
REMARK  250  A    between atoms: _597  and  _600
REMARK  251  A    between atoms: _600  and  _601
REMARK  252  A    between atoms: _601  and  _602
REMARK  253  A    between atoms: _602  and  _603
REMARK  254  A    between atoms: _612  and  _614
REMARK  255  A    between atoms: _614  and  _615
REMARK  256  A    between atoms: _614  and  _617
REMARK  257  A    between atoms: _617  and  _618
REMARK  258  A    between atoms: _618  and  _619
REMARK  259  A    between atoms: _619  and  _620
REMARK  260  A    between atoms: _629  and  _631
REMARK  261  A    between atoms: _631  and  _632
REMARK  262  A    between atoms: _631  and  _634
REMARK  263  A    between atoms: _634  and  _635
REMARK  264  A    between atoms: _640  and  _641
REMARK  265  A    between atoms: _643  and  _645
REMARK  266  A    between atoms: _645  and  _646
REMARK  267  A    between atoms: _645  and  _648
REMARK  268  A    between atoms: _648  and  _649
REMARK  269  A    between atoms: _652  and  _654
REMARK  270  A    between atoms: _654  and  _655
REMARK  271  A    between atoms: _654  and  _657
REMARK  272  A    between atoms: _657  and  _658
REMARK  273  A    between atoms: _658  and  _659
REMARK  274  A    between atoms: _659  and  _660
REMARK  275  A    between atoms: _660  and  _661
REMARK  276  A    between atoms: _665  and  _667
REMARK  277  A    between atoms: _667  and  _668
REMARK  278  A    between atoms: _667  and  _670
REMARK  279  A    between atoms: _670  and  _671
REMARK  280  A    between atoms: _676  and  _678
REMARK  281  A    between atoms: _678  and  _679
REMARK  282  A    between atoms: _678  and  _681
REMARK  283  A    between atoms: _681  and  _682
REMARK  284  A    between atoms: _692  and  _694
REMARK  285  A    between atoms: _694  and  _695
REMARK  286  A    between atoms: _694  and  _697
REMARK  287  A    between atoms: _697  and  _698
REMARK  288  A    between atoms: _698  and  _699
REMARK  289  A    between atoms: _702  and  _704
REMARK  290  A    between atoms: _704  and  _705
REMARK  291  A    between atoms: _704  and  _707
REMARK  292  A    between atoms: _707  and  _708
REMARK  293  A    between atoms: _711  and  _713
REMARK  294  A    between atoms: _713  and  _714
REMARK  295  A    between atoms: _713  and  _716
REMARK  296  A    between atoms: _716  and  _717
REMARK  297  A    between atoms: _722  and  _724
REMARK  298  A    between atoms: _724  and  _725
REMARK  299  A    between atoms: _724  and  _727
REMARK  300  A    between atoms: _727  and  _728
REMARK  301  A    between atoms: _734  and  _736
REMARK  302  A    between atoms: _736  and  _737
REMARK  303  A    between atoms: _736  and  _739
REMARK  304  A    between atoms: _739  and  _740
REMARK  305  A    between atoms: _742  and  _744
REMARK  306  A    between atoms: _744  and  _745
REMARK  307  A    between atoms: _747  and  _749
REMARK  308  A    between atoms: _749  and  _750
REMARK  309  A    between atoms: _749  and  _752
REMARK  310  A    between atoms: _752  and  _753
REMARK  311  A    between atoms: _758  and  _759
REMARK  312  A    between atoms: _761  and  _763
REMARK  313  A    between atoms: _763  and  _764
REMARK  314  A    between atoms: _763  and  _766
REMARK  315  A    between atoms: _766  and  _767
REMARK  316  A    between atoms: _772  and  _773
REMARK  317  A    between atoms: _775  and  _777
REMARK  318  A    between atoms: _777  and  _778
REMARK  319  A    between atoms: _777  and  _780
REMARK  320  A    between atoms: _780  and  _781
REMARK  321  A    between atoms: _785  and  ZN_876
REMARK  322  A    between atoms: _786  and  _788
REMARK  323  A    between atoms: _788  and  _789
REMARK  324  A    between atoms: _788  and  _791
REMARK  325  A    between atoms: _791  and  _792
REMARK  326  A    between atoms: _792  and  _793
REMARK  327  A    between atoms: _796  and  _798
REMARK  328  A    between atoms: _798  and  _799
REMARK  329  A    between atoms: _798  and  _801
REMARK  330  A    between atoms: _801  and  _802
REMARK  331  A    between atoms: _802  and  _803
REMARK  332  A    between atoms: _803  and  _804
REMARK  333  A    between atoms: _813  and  _815
REMARK  334  A    between atoms: _815  and  _816
REMARK  335  A    between atoms: _815  and  _818
REMARK  336  A    between atoms: _818  and  _819
REMARK  337  A    between atoms: _824  and  _825
REMARK  338  A    between atoms: _827  and  _829
REMARK  339  A    between atoms: _829  and  _830
REMARK  340  A    between atoms: _829  and  _832
REMARK  341  A    between atoms: _832  and  _833
REMARK  342  A    between atoms: _838  and  _840
REMARK  343  A    between atoms: _840  and  _841
REMARK  344  A    between atoms: _840  and  _843
REMARK  345  A    between atoms: _843  and  _844
REMARK  346  A    between atoms: _844  and  _845
REMARK  347  A    between atoms: _845  and  _846
REMARK  348  A    between atoms: _846  and  _847
REMARK  349  A    between atoms: _851  and  _853
REMARK  350  A    between atoms: _853  and  _854
REMARK  351  A    between atoms: _853  and  _856
REMARK  352  A    between atoms: _856  and  _857
REMARK  353  A    between atoms: _862  and  _863
REMARK  354  A    between atoms: _865  and  _867
REMARK  355  A    between atoms: _867  and  _868
REMARK  356  A    between atoms: _871  and  _873
REMARK  357  A    between atoms: _873  and  _874
REMARK                            x       y       z     vdW  Elec       q    Type
REMARK                         _______ _______ _______ _____ _____    ______ ____
ROOT
ATOM      1  C   LEU A   5      19.316  56.793  46.703  0.00  0.00    +0.241 C 
ATOM      2  O   LEU A   5      19.001  57.927  46.289  0.00  0.00    -0.273 OA
ATOM      3  N   GLY A   6      19.449  55.738  45.870  0.00  0.00    -0.295 N 
ATOM      4  H   GLY A   6      19.984  54.886  46.135  0.00  0.00    +0.150 HD
ENDROOT
BRANCH   3   5
ATOM      5  CA  GLY A   6      18.786  55.873  44.559  0.00  0.00    +0.176 C 
BRANCH   5   6
ATOM      6  C   GLY A   6      17.510  55.091  44.451  0.00  0.00    +0.243 C 
ATOM      7  O   GLY A   6      16.462  55.439  44.997  0.00  0.00    -0.273 OA
ATOM      8  N   SER A   7      17.551  54.015  43.642  0.00  0.00    -0.295 N 
ATOM      9  H   SER A   7      18.389  53.808  43.062  0.00  0.00    +0.150 HD
BRANCH   8  10
ATOM     10  CA  SER A   7      16.375  53.150  43.610  0.00  0.00    +0.178 C 
BRANCH  10  11
ATOM     11  C   SER A   7      16.810  51.728  43.286  0.00  0.00    +0.243 C 
ATOM     12  O   SER A   7      17.971  51.366  43.577  0.00  0.00    -0.273 OA
ATOM     13  N   GLY A   8      15.900  50.912  42.719  0.00  0.00    -0.295 N 
ATOM     14  H   GLY A   8      14.968  51.278  42.437  0.00  0.00    +0.150 HD
BRANCH  13  15
ATOM     15  CA  GLY A   8      16.243  49.489  42.502  0.00  0.00    +0.176 C 
BRANCH  15  16
ATOM     16  C   GLY A   8      16.019  48.677  43.802  0.00  0.00    +0.243 C 
ATOM     17  N   ASN A   9      15.240  49.217  44.740  0.00  0.00    -0.297 N 
ATOM     18  H   ASN A   9      14.934  50.207  44.654  0.00  0.00    +0.150 HD
ATOM     19  O   GLY A   8      16.493  47.552  43.918  0.00  0.00    -0.273 OA
BRANCH  17  20
ATOM     20  CA  ASN A   9      14.813  48.416  45.895  0.00  0.00    +0.158 C 
BRANCH  20  21
ATOM     21  C   ASN A   9      13.567  48.975  46.564  0.00  0.00    +0.241 C 
ATOM     22  N   ASP A  10      13.053  48.292  47.585  0.00  0.00    -0.297 N 
ATOM     23  H   ASP A  10      13.631  47.584  48.082  0.00  0.00    +0.150 HD
ATOM     24  O   ASN A   9      13.102  50.075  46.193  0.00  0.00    -0.273 OA
BRANCH  22  25
ATOM     25  CA  ASP A  10      11.644  48.545  48.016  0.00  0.00    +0.160 C 
BRANCH  25  26
ATOM     26  C   ASP A  10      11.457  49.819  48.819  0.00  0.00    +0.241 C 
ATOM     27  N   PHE A  11      12.537  50.509  49.155  0.00  0.00    -0.297 N 
ATOM     28  H   PHE A  11      13.488  50.118  48.996  0.00  0.00    +0.150 HD
ATOM     29  O   ASP A  10      10.293  50.219  49.112  0.00  0.00    -0.273 OA
BRANCH  27  30
ATOM     30  CA  PHE A  11      12.360  51.858  49.766  0.00  0.00    +0.153 C 
BRANCH  30  31
ATOM     31  C   PHE A  11      11.886  52.914  48.758  0.00  0.00    +0.241 C 
ATOM     32  O   PHE A  11      11.518  53.990  49.165  0.00  0.00    -0.273 OA
ATOM     33  N   GLU A  12      11.889  52.613  47.458  0.00  0.00    -0.298 N 
ATOM     34  H   GLU A  12      12.083  51.637  47.157  0.00  0.00    +0.150 HD
BRANCH  33  35
ATOM     35  CA  GLU A  12      11.621  53.644  46.447  0.00  0.00    +0.137 C 
BRANCH  35  36
ATOM     36  C   GLU A  12      10.268  54.317  46.676  0.00  0.00    +0.227 C 
ATOM     37  O   GLU A  12      10.177  55.560  46.665  0.00  0.00    -0.286 OA
ENDBRANCH  35  36
BRANCH  35  38
ATOM     38  CB  GLU A  12      11.660  53.027  45.018  0.00  0.00    +0.039 C 
BRANCH  38  39
ATOM     39  CG  GLU A  12      11.609  54.162  43.943  0.00  0.00    +0.116 C 
BRANCH  39  40
ATOM     40  CD  GLU A  12      11.386  53.527  42.506  0.00  0.00    +0.365 C 
ATOM     41  OE2 GLU A  12      10.374  52.850  42.300  0.00  0.00    -0.246 OA
ATOM     42  OE1 GLU A  12      12.217  53.710  41.597  0.00  0.00    -0.246 OA
ENDBRANCH  39  40
ENDBRANCH  38  39
ENDBRANCH  35  38
ENDBRANCH  33  35
ENDBRANCH  30  31
BRANCH  30  43
ATOM     43  CB  PHE A  11      13.702  52.350  50.393  0.00  0.00    +0.055 C 
BRANCH  43  44
ATOM     44  CG  PHE A  11      14.785  52.464  49.372  0.00  0.00    -0.020 A 
ATOM     45  CD2 PHE A  11      15.738  51.448  49.231  0.00  0.00    -0.004 A 
ATOM     46  CE2 PHE A  11      16.734  51.518  48.248  0.00  0.00    -0.000 A 
ATOM     47  CZ  PHE A  11      16.787  52.616  47.404  0.00  0.00    -0.000 A 
ATOM     48  CE1 PHE A  11      15.872  53.661  47.539  0.00  0.00    -0.000 A 
ATOM     49  CD1 PHE A  11      14.852  53.611  48.531  0.00  0.00    -0.004 A 
ENDBRANCH  43  44
ENDBRANCH  30  43
ENDBRANCH  27  30
ENDBRANCH  25  26
BRANCH  25  50
ATOM     50  CB  ASP A  10      11.144  47.369  48.876  0.00  0.00    +0.143 C 
BRANCH  50  51
ATOM     51  CG  ASP A  10      10.869  46.119  48.029  0.00  0.00    +0.367 C 
ATOM     52  OD2 ASP A  10      11.373  45.006  48.386  0.00  0.00    -0.246 OA
ATOM     53  OD1 ASP A  10      10.138  46.283  46.980  0.00  0.00    -0.246 OA
ENDBRANCH  50  51
ENDBRANCH  25  50
ENDBRANCH  22  25
ENDBRANCH  20  21
BRANCH  20  54
ATOM     54  CB  ASN A   9      15.961  48.162  46.862  0.00  0.00    +0.114 C 
BRANCH  54  55
ATOM     55  CG  ASN A   9      15.960  46.706  47.388  0.00  0.00    +0.222 C 
ATOM     56  OD1 ASN A   9      15.015  46.260  48.078  0.00  0.00    -0.275 OA
ATOM     57  ND2 ASN A   9      17.027  45.960  47.060  0.00  0.00    -0.329 N 
ATOM     58 HD21 ASN A   9      17.090  44.973  47.381  0.00  0.00    +0.145 HD
ATOM     59 HD22 ASN A   9      17.791  46.369  46.485  0.00  0.00    +0.145 HD
ENDBRANCH  54  55
ENDBRANCH  20  54
ENDBRANCH  17  20
ENDBRANCH  15  16
ENDBRANCH  13  15
ENDBRANCH  10  11
BRANCH  10  60
ATOM     60  CB  SER A   7      15.367  53.665  42.665  0.00  0.00    +0.166 C 
BRANCH  60  61
ATOM     61  OG  SER A   7      14.244  52.811  42.602  0.00  0.00    -0.380 OA
ATOM     62  H   SER A   7      13.585  53.180  41.962  0.00  0.00    +0.211 HD
ENDBRANCH  60  61
ENDBRANCH  10  60
ENDBRANCH   8  10
ENDBRANCH   5   6
ENDBRANCH   3   5
BRANCH   1  63
ATOM     63  CA  LEU A   5      19.532  56.589  48.174  0.00  0.00    +0.149 C 
BRANCH  63  65
ATOM     64  C   LYS A   4      21.653  57.678  48.381  0.00  0.00    +0.241 C 
ATOM     65  N   LEU A   5      20.356  57.693  48.597  0.00  0.00    -0.297 N 
ATOM     66  H   LEU A   5      19.922  58.507  49.076  0.00  0.00    +0.150 HD
ATOM     67  O   LYS A   4      22.209  56.742  47.796  0.00  0.00    -0.273 OA
BRANCH  64  68
ATOM     68  CA  LYS A   4      22.426  58.904  48.833  0.00  0.00    +0.149 C 
BRANCH  68  71
ATOM     69  C   SER A   3      24.196  57.899  50.052  0.00  0.00    +0.243 C 
ATOM     70  O   SER A   3      23.422  57.700  51.008  0.00  0.00    -0.273 OA
ATOM     71  N   LYS A   4      23.818  58.469  48.934  0.00  0.00    -0.297 N 
ATOM     72  H   LYS A   4      24.484  58.607  48.147  0.00  0.00    +0.150 HD
BRANCH  69  73
ATOM     73  CA  SER A   3      25.656  57.414  50.063  0.00  0.00    +0.178 C 
BRANCH  73  76
ATOM     74  C   ILE A   2      26.604  57.972  52.244  0.00  0.00    +0.241 C 
ATOM     75  O   ILE A   2      26.648  59.177  51.979  0.00  0.00    -0.273 OA
ATOM     76  N   SER A   3      26.076  57.078  51.418  0.00  0.00    -0.295 N 
ATOM     77  H   SER A   3      25.957  56.100  51.750  0.00  0.00    +0.150 HD
BRANCH  74  78
ATOM     78  CA  ILE A   2      27.186  57.498  53.572  0.00  0.00    +0.148 C 
BRANCH  78  81
ATOM     79  C   ARG A   1      29.563  57.100  53.922  0.00  0.00    +0.238 C 
ATOM     80  O   ARG A   1      29.368  55.962  54.350  0.00  0.00    -0.274 OA
ATOM     81  N   ILE A   2      28.586  57.940  53.633  0.00  0.00    -0.297 N 
ATOM     82  H   ILE A   2      28.813  58.937  53.444  0.00  0.00    +0.150 HD
BRANCH  79  83
ATOM     83  CA  ARG A   1      30.984  57.586  53.642  0.00  0.00    +0.145 C 
BRANCH  83  84
ATOM     84  N   ARG A   1      31.824  57.305  54.778  0.00  0.00    -0.238 NA
ATOM     85  H   ARG A   1      32.538  56.551  54.716  0.00  0.00    +0.142 HD
ENDBRANCH  83  84
BRANCH  83  86
ATOM     86  CB  ARG A   1      31.509  56.798  52.437  0.00  0.00    +0.030 C 
BRANCH  86  87
ATOM     87  CG  ARG A   1      30.670  56.915  51.180  0.00  0.00    +0.045 C 
BRANCH  87  88
ATOM     88  CD  ARG A   1      31.187  55.947  50.154  0.00  0.00    +0.174 C 
BRANCH  88  89
ATOM     89  NE  ARG A   1      32.519  56.393  49.779  0.00  0.00    -0.265 N 
ATOM     90  HE  ARG A   1      33.328  56.075  50.350  0.00  0.00    +0.259 HD
ATOM     91  CZ  ARG A   1      32.749  57.188  48.741  0.00  0.00    +0.342 C 
ATOM     92  NH2 ARG A   1      33.986  57.597  48.460  0.00  0.00    -0.292 N 
ATOM     93 HH21 ARG A   1      34.782  57.293  49.056  0.00  0.00    +0.255 HD
ATOM     94 HH22 ARG A   1      34.155  58.220  47.644  0.00  0.00    +0.255 HD
ATOM     95  NH1 ARG A   1      31.722  57.583  47.984  0.00  0.00    -0.292 N 
ATOM     96 HH11 ARG A   1      30.757  57.268  48.211  0.00  0.00    +0.255 HD
ATOM     97 HH12 ARG A   1      31.887  58.206  47.168  0.00  0.00    +0.255 HD
ENDBRANCH  88  89
ENDBRANCH  87  88
ENDBRANCH  86  87
ENDBRANCH  83  86
ENDBRANCH  79  83
ENDBRANCH  78  81
BRANCH  78  98
ATOM     98  CB  ILE A   2      26.337  58.108  54.738  0.00  0.00    +0.027 C 
ATOM     99  CG2 ILE A   2      24.794  57.754  54.507  0.00  0.00    +0.002 C 
BRANCH  98 100
ATOM    100  CG1 ILE A   2      26.868  57.674  56.109  0.00  0.00    +0.002 C 
ATOM    101  CD1 ILE A   2      26.083  58.246  57.341  0.00  0.00    +0.000 C 
ENDBRANCH  98 100
ENDBRANCH  78  98
ENDBRANCH  74  78
ENDBRANCH  73  76
BRANCH  73 102
ATOM    102  CB  SER A   3      25.757  56.222  49.107  0.00  0.00    +0.166 C 
BRANCH 102 103
ATOM    103  OG  SER A   3      27.108  55.792  48.989  0.00  0.00    -0.380 OA
ATOM    104  H   SER A   3      27.660  56.535  48.638  0.00  0.00    +0.211 HD
ENDBRANCH 102 103
ENDBRANCH  73 102
ENDBRANCH  69  73
ENDBRANCH  68  71
BRANCH  68 105
ATOM    105  CB  LYS A   4      22.284  60.051  47.832  0.00  0.00    +0.029 C 
BRANCH 105 106
ATOM    106  CG  LYS A   4      22.923  59.826  46.578  0.00  0.00    +0.000 C 
BRANCH 106 107
ATOM    107  CD  LYS A   4      22.711  61.030  45.609  0.00  0.00    -0.024 C 
BRANCH 107 108
ATOM    108  CE  LYS A   4      23.409  62.228  46.003  0.00  0.00    -0.086 C 
BRANCH 108 109
ATOM    109  NZ  LYS A   4      24.746  62.053  45.388  0.00  0.00    +0.380 N 
ATOM    110  HZ1 LYS A   4      25.189  61.190  45.764  0.00  0.00    -0.089 HD
ATOM    111  HZ2 LYS A   4      25.341  62.876  45.614  0.00  0.00    -0.089 HD
ATOM    112  HZ3 LYS A   4      24.644  61.971  44.356  0.00  0.00    -0.089 HD
ENDBRANCH 108 109
ENDBRANCH 107 108
ENDBRANCH 106 107
ENDBRANCH 105 106
ENDBRANCH  68 105
ENDBRANCH  64  68
ENDBRANCH  63  65
BRANCH  63 113
ATOM    113  CB  LEU A   5      18.147  56.645  48.881  0.00  0.00    +0.029 C 
BRANCH 113 114
ATOM    114  CG  LEU A   5      18.235  56.169  50.338  0.00  0.00    +0.002 C 
ATOM    115  CD2 LEU A   5      16.955  56.639  51.101  0.00  0.00    +0.000 C 
ATOM    116  CD1 LEU A   5      18.476  54.694  50.382  0.00  0.00    +0.000 C 
ENDBRANCH 113 114
ENDBRANCH  63 113
ENDBRANCH   1  63
TORSDOF 50
REMARK  Name = ../refined-set-2016/2xei/2xei_pocket.pdb
REMARK  357 active torsions:
REMARK  status: ('A' for Active; 'I' for Inactive)
REMARK    1  A    between atoms: _1  and  _3
REMARK    2  A    between atoms: _3  and  _4
REMARK    3  A    between atoms: _7  and  _9
REMARK    4  A    between atoms: _9  and  _10
REMARK    5  A    between atoms: _9  and  _12
REMARK    6  A    between atoms: _12  and  _13
REMARK    7  A    between atoms: _19  and  _21
REMARK    8  A    between atoms: _21  and  _22
REMARK    9  A    between atoms: _24  and  _26
REMARK   10  A    between atoms: _26  and  _27
REMARK   11  A    between atoms: _26  and  _29
REMARK   12  A    between atoms: _29  and  _30
REMARK   13  A    between atoms: _30  and  _31
REMARK   14  A    between atoms: _31  and  _32
REMARK   15  A    between atoms: _32  and  _33
REMARK   16  A    between atoms: _37  and  _39
REMARK   17  A    between atoms: _39  and  _40
REMARK   18  A    between atoms: _39  and  _42
REMARK   19  A    between atoms: _45  and  _47
REMARK   20  A    between atoms: _47  and  _48
REMARK   21  A    between atoms: _47  and  _50
REMARK   22  A    between atoms: _50  and  _51
REMARK   23  A    between atoms: _57  and  _59
REMARK   24  A    between atoms: _59  and  _60
REMARK   25  A    between atoms: _59  and  _62
REMARK   26  A    between atoms: _62  and  _63
REMARK   27  A    between atoms: _63  and  _64
REMARK   28  A    between atoms: _64  and  _65
REMARK   29  A    between atoms: _74  and  _76
REMARK   30  A    between atoms: _76  and  _77
REMARK   31  A    between atoms: _79  and  _81
REMARK   32  A    between atoms: _81  and  _82
REMARK   33  A    between atoms: _81  and  _84
REMARK   34  A    between atoms: _84  and  _85
REMARK   35  A    between atoms: _90  and  _91
REMARK   36  A    between atoms: _93  and  _95
REMARK   37  A    between atoms: _95  and  _96
REMARK   38  A    between atoms: _95  and  _98
REMARK   39  A    between atoms: _98  and  _99
REMARK   40  A    between atoms: _99  and  _100
REMARK   41  A    between atoms: _105  and  _107
REMARK   42  A    between atoms: _107  and  _108
REMARK   43  A    between atoms: _107  and  _110
REMARK   44  A    between atoms: _110  and  _111
REMARK   45  A    between atoms: _111  and  _112
REMARK   46  A    between atoms: _112  and  _113
REMARK   47  A    between atoms: _122  and  _124
REMARK   48  A    between atoms: _124  and  _125
REMARK   49  A    between atoms: _127  and  _129
REMARK   50  A    between atoms: _129  and  _130
REMARK   51  A    between atoms: _129  and  _132
REMARK   52  A    between atoms: _132  and  _133
REMARK   53  A    between atoms: _138  and  _140
REMARK   54  A    between atoms: _140  and  _141
REMARK   55  A    between atoms: _140  and  _143
REMARK   56  A    between atoms: _143  and  _144
REMARK   57  A    between atoms: _147  and  _149
REMARK   58  A    between atoms: _149  and  _150
REMARK   59  A    between atoms: _149  and  _152
REMARK   60  A    between atoms: _152  and  _153
REMARK   61  A    between atoms: _156  and  _158
REMARK   62  A    between atoms: _158  and  _159
REMARK   63  A    between atoms: _158  and  _161
REMARK   64  A    between atoms: _161  and  _162
REMARK   65  A    between atoms: _167  and  _169
REMARK   66  A    between atoms: _169  and  _170
REMARK   67  A    between atoms: _169  and  _172
REMARK   68  A    between atoms: _172  and  _173
REMARK   69  A    between atoms: _176  and  _178
REMARK   70  A    between atoms: _178  and  _179
REMARK   71  A    between atoms: _178  and  _181
REMARK   72  A    between atoms: _181  and  _182
REMARK   73  A    between atoms: _187  and  _189
REMARK   74  A    between atoms: _189  and  _190
REMARK   75  A    between atoms: _192  and  _194
REMARK   76  A    between atoms: _194  and  _195
REMARK   77  A    between atoms: _194  and  _197
REMARK   78  A    between atoms: _197  and  _198
REMARK   79  A    between atoms: _202  and  ZN_877
REMARK   80  A    between atoms: _203  and  _205
REMARK   81  A    between atoms: _205  and  _206
REMARK   82  A    between atoms: _205  and  _208
REMARK   83  A    between atoms: _208  and  _209
REMARK   84  A    between atoms: _212  and  _214
REMARK   85  A    between atoms: _214  and  _215
REMARK   86  A    between atoms: _214  and  _217
REMARK   87  A    between atoms: _217  and  _218
REMARK   88  A    between atoms: _228  and  _230
REMARK   89  A    between atoms: _230  and  _231
REMARK   90  A    between atoms: _230  and  _233
REMARK   91  A    between atoms: _233  and  _234
REMARK   92  A    between atoms: _237  and  _239
REMARK   93  A    between atoms: _239  and  _240
REMARK   94  A    between atoms: _239  and  _242
REMARK   95  A    between atoms: _242  and  _243
REMARK   96  A    between atoms: _243  and  _244
REMARK   97  A    between atoms: _243  and  _245
REMARK   98  A    between atoms: _244  and  ZN_877
REMARK   99  A    between atoms: _245  and  ZN_876
REMARK  100  A    between atoms: _247  and  _248
REMARK  101  A    between atoms: _253  and  _255
REMARK  102  A    between atoms: _255  and  _256
REMARK  103  A    between atoms: _259  and  _261
REMARK  104  A    between atoms: _261  and  _262
REMARK  105  A    between atoms: _261  and  _264
REMARK  106  A    between atoms: _264  and  _265
REMARK  107  A    between atoms: _265  and  _266
REMARK  108  A    between atoms: _269  and  _271
REMARK  109  A    between atoms: _271  and  _272
REMARK  110  A    between atoms: _271  and  _274
REMARK  111  A    between atoms: _274  and  _275
REMARK  112  A    between atoms: _275  and  _276
REMARK  113  A    between atoms: _276  and  _278
REMARK  114  A    between atoms: _278  and  ZN_876
REMARK  115  A    between atoms: _279  and  _281
REMARK  116  A    between atoms: _281  and  _282
REMARK  117  A    between atoms: _281  and  _284
REMARK  118  A    between atoms: _284  and  _285
REMARK  119  A    between atoms: _291  and  _293
REMARK  120  A    between atoms: _293  and  _294
REMARK  121  A    between atoms: _296  and  _298
REMARK  122  A    between atoms: _298  and  _299
REMARK  123  A    between atoms: _298  and  _301
REMARK  124  A    between atoms: _301  and  _302
REMARK  125  A    between atoms: _305  and  _307
REMARK  126  A    between atoms: _307  and  _308
REMARK  127  A    between atoms: _307  and  _310
REMARK  128  A    between atoms: _310  and  _311
REMARK  129  A    between atoms: _314  and  _316
REMARK  130  A    between atoms: _316  and  _317
REMARK  131  A    between atoms: _316  and  _319
REMARK  132  A    between atoms: _319  and  _320
REMARK  133  A    between atoms: _325  and  _327
REMARK  134  A    between atoms: _327  and  _328
REMARK  135  A    between atoms: _327  and  _330
REMARK  136  A    between atoms: _330  and  _331
REMARK  137  A    between atoms: _331  and  _333
REMARK  138  A    between atoms: _333  and  ZN_877
REMARK  139  A    between atoms: _334  and  _336
REMARK  140  A    between atoms: _336  and  _337
REMARK  141  A    between atoms: _336  and  _339
REMARK  142  A    between atoms: _339  and  _340
REMARK  143  A    between atoms: _342  and  _344
REMARK  144  A    between atoms: _344  and  _345
REMARK  145  A    between atoms: _344  and  _347
REMARK  146  A    between atoms: _347  and  _348
REMARK  147  A    between atoms: _350  and  _352
REMARK  148  A    between atoms: _352  and  _353
REMARK  149  A    between atoms: _352  and  _355
REMARK  150  A    between atoms: _355  and  _356
REMARK  151  A    between atoms: _359  and  _361
REMARK  152  A    between atoms: _361  and  _362
REMARK  153  A    between atoms: _361  and  _364
REMARK  154  A    between atoms: _364  and  _365
REMARK  155  A    between atoms: _365  and  _366
REMARK  156  A    between atoms: _369  and  _371
REMARK  157  A    between atoms: _371  and  _372
REMARK  158  A    between atoms: _371  and  _374
REMARK  159  A    between atoms: _374  and  _375
REMARK  160  A    between atoms: _380  and  _381
REMARK  161  A    between atoms: _383  and  _385
REMARK  162  A    between atoms: _385  and  _386
REMARK  163  A    between atoms: _385  and  _388
REMARK  164  A    between atoms: _388  and  _389
REMARK  165  A    between atoms: _392  and  _394
REMARK  166  A    between atoms: _394  and  _395
REMARK  167  A    between atoms: _394  and  _397
REMARK  168  A    between atoms: _397  and  _398
REMARK  169  A    between atoms: _401  and  _403
REMARK  170  A    between atoms: _403  and  _404
REMARK  171  A    between atoms: _403  and  _406
REMARK  172  A    between atoms: _406  and  _407
REMARK  173  A    between atoms: _407  and  _408
REMARK  174  A    between atoms: _408  and  _409
REMARK  175  A    between atoms: _418  and  _420
REMARK  176  A    between atoms: _420  and  _421
REMARK  177  A    between atoms: _420  and  _423
REMARK  178  A    between atoms: _426  and  _428
REMARK  179  A    between atoms: _428  and  _429
REMARK  180  A    between atoms: _428  and  _431
REMARK  181  A    between atoms: _431  and  _432
REMARK  182  A    between atoms: _435  and  _437
REMARK  183  A    between atoms: _437  and  _438
REMARK  184  A    between atoms: _437  and  _440
REMARK  185  A    between atoms: _440  and  _441
REMARK  186  A    between atoms: _451  and  _453
REMARK  187  A    between atoms: _453  and  _454
REMARK  188  A    between atoms: _453  and  _456
REMARK  189  A    between atoms: _456  and  _457
REMARK  190  A    between atoms: _457  and  _458
REMARK  191  A    between atoms: _458  and  _459
REMARK  192  A    between atoms: _459  and  _460
REMARK  193  A    between atoms: _464  and  _466
REMARK  194  A    between atoms: _466  and  _467
REMARK  195  A    between atoms: _466  and  _469
REMARK  196  A    between atoms: _469  and  _470
REMARK  197  A    between atoms: _473  and  _474
REMARK  198  A    between atoms: _479  and  _481
REMARK  199  A    between atoms: _481  and  _482
REMARK  200  A    between atoms: _481  and  _484
REMARK  201  A    between atoms: _484  and  _485
REMARK  202  A    between atoms: _485  and  _486
REMARK  203  A    between atoms: _486  and  _487
REMARK  204  A    between atoms: _496  and  _498
REMARK  205  A    between atoms: _498  and  _499
REMARK  206  A    between atoms: _498  and  _501
REMARK  207  A    between atoms: _501  and  _502
REMARK  208  A    between atoms: _505  and  _507
REMARK  209  A    between atoms: _507  and  _508
REMARK  210  A    between atoms: _507  and  _510
REMARK  211  A    between atoms: _510  and  _511
REMARK  212  A    between atoms: _513  and  _515
REMARK  213  A    between atoms: _515  and  _516
REMARK  214  A    between atoms: _515  and  _518
REMARK  215  A    between atoms: _518  and  _519
REMARK  216  A    between atoms: _519  and  _520
REMARK  217  A    between atoms: _520  and  _521
REMARK  218  A    between atoms: _521  and  _522
REMARK  219  A    between atoms: _526  and  _528
REMARK  220  A    between atoms: _528  and  _529
REMARK  221  A    between atoms: _528  and  _531
REMARK  222  A    between atoms: _531  and  _532
REMARK  223  A    between atoms: _535  and  _537
REMARK  224  A    between atoms: _537  and  _538
REMARK  225  A    between atoms: _540  and  _542
REMARK  226  A    between atoms: _542  and  _543
REMARK  227  A    between atoms: _542  and  _545
REMARK  228  A    between atoms: _545  and  _546
REMARK  229  A    between atoms: _548  and  _550
REMARK  230  A    between atoms: _550  and  _551
REMARK  231  A    between atoms: _553  and  _555
REMARK  232  A    between atoms: _555  and  _556
REMARK  233  A    between atoms: _555  and  _558
REMARK  234  A    between atoms: _558  and  _559
REMARK  235  A    between atoms: _564  and  _566
REMARK  236  A    between atoms: _566  and  _567
REMARK  237  A    between atoms: _566  and  _569
REMARK  238  A    between atoms: _569  and  _570
REMARK  239  A    between atoms: _573  and  _575
REMARK  240  A    between atoms: _575  and  _576
REMARK  241  A    between atoms: _575  and  _578
REMARK  242  A    between atoms: _578  and  _579
REMARK  243  A    between atoms: _585  and  _587
REMARK  244  A    between atoms: _587  and  _588
REMARK  245  A    between atoms: _587  and  _590
REMARK  246  A    between atoms: _590  and  _591
REMARK  247  A    between atoms: _591  and  _592
REMARK  248  A    between atoms: _595  and  _597
REMARK  249  A    between atoms: _597  and  _598
REMARK  250  A    between atoms: _597  and  _600
REMARK  251  A    between atoms: _600  and  _601
REMARK  252  A    between atoms: _601  and  _602
REMARK  253  A    between atoms: _602  and  _603
REMARK  254  A    between atoms: _612  and  _614
REMARK  255  A    between atoms: _614  and  _615
REMARK  256  A    between atoms: _614  and  _617
REMARK  257  A    between atoms: _617  and  _618
REMARK  258  A    between atoms: _618  and  _619
REMARK  259  A    between atoms: _619  and  _620
REMARK  260  A    between atoms: _629  and  _631
REMARK  261  A    between atoms: _631  and  _632
REMARK  262  A    between atoms: _631  and  _634
REMARK  263  A    between atoms: _634  and  _635
REMARK  264  A    between atoms: _640  and  _641
REMARK  265  A    between atoms: _643  and  _645
REMARK  266  A    between atoms: _645  and  _646
REMARK  267  A    between atoms: _645  and  _648
REMARK  268  A    between atoms: _648  and  _649
REMARK  269  A    between atoms: _652  and  _654
REMARK  270  A    between atoms: _654  and  _655
REMARK  271  A    between atoms: _654  and  _657
REMARK  272  A    between atoms: _657  and  _658
REMARK  273  A    between atoms: _658  and  _659
REMARK  274  A    between atoms: _659  and  _660
REMARK  275  A    between atoms: _660  and  _661
REMARK  276  A    between atoms: _665  and  _667
REMARK  277  A    between atoms: _667  and  _668
REMARK  278  A    between atoms: _667  and  _670
REMARK  279  A    between atoms: _670  and  _671
REMARK  280  A    between atoms: _676  and  _678
REMARK  281  A    between atoms: _678  and  _679
REMARK  282  A    between atoms: _678  and  _681
REMARK  283  A    between atoms: _681  and  _682
REMARK  284  A    between atoms: _692  and  _694
REMARK  285  A    between atoms: _694  and  _695
REMARK  286  A    between atoms: _694  and  _697
REMARK  287  A    between atoms: _697  and  _698
REMARK  288  A    between atoms: _698  and  _699
REMARK  289  A    between atoms: _702  and  _704
REMARK  290  A    between atoms: _704  and  _705
REMARK  291  A    between atoms: _704  and  _707
REMARK  292  A    between atoms: _707  and  _708
REMARK  293  A    between atoms: _711  and  _713
REMARK  294  A    between atoms: _713  and  _714
REMARK  295  A    between atoms: _713  and  _716
REMARK  296  A    between atoms: _716  and  _717
REMARK  297  A    between atoms: _722  and  _724
REMARK  298  A    between atoms: _724  and  _725
REMARK  299  A    between atoms: _724  and  _727
REMARK  300  A    between atoms: _727  and  _728
REMARK  301  A    between atoms: _734  and  _736
REMARK  302  A    between atoms: _736  and  _737
REMARK  303  A    between atoms: _736  and  _739
REMARK  304  A    between atoms: _739  and  _740
REMARK  305  A    between atoms: _742  and  _744
REMARK  306  A    between atoms: _744  and  _745
REMARK  307  A    between atoms: _747  and  _749
REMARK  308  A    between atoms: _749  and  _750
REMARK  309  A    between atoms: _749  and  _752
REMARK  310  A    between atoms: _752  and  _753
REMARK  311  A    between atoms: _758  and  _759
REMARK  312  A    between atoms: _761  and  _763
REMARK  313  A    between atoms: _763  and  _764
REMARK  314  A    between atoms: _763  and  _766
REMARK  315  A    between atoms: _766  and  _767
REMARK  316  A    between atoms: _772  and  _773
REMARK  317  A    between atoms: _775  and  _777
REMARK  318  A    between atoms: _777  and  _778
REMARK  319  A    between atoms: _777  and  _780
REMARK  320  A    between atoms: _780  and  _781
REMARK  321  A    between atoms: _785  and  ZN_876
REMARK  322  A    between atoms: _786  and  _788
REMARK  323  A    between atoms: _788  and  _789
REMARK  324  A    between atoms: _788  and  _791
REMARK  325  A    between atoms: _791  and  _792
REMARK  326  A    between atoms: _792  and  _793
REMARK  327  A    between atoms: _796  and  _798
REMARK  328  A    between atoms: _798  and  _799
REMARK  329  A    between atoms: _798  and  _801
REMARK  330  A    between atoms: _801  and  _802
REMARK  331  A    between atoms: _802  and  _803
REMARK  332  A    between atoms: _803  and  _804
REMARK  333  A    between atoms: _813  and  _815
REMARK  334  A    between atoms: _815  and  _816
REMARK  335  A    between atoms: _815  and  _818
REMARK  336  A    between atoms: _818  and  _819
REMARK  337  A    between atoms: _824  and  _825
REMARK  338  A    between atoms: _827  and  _829
REMARK  339  A    between atoms: _829  and  _830
REMARK  340  A    between atoms: _829  and  _832
REMARK  341  A    between atoms: _832  and  _833
REMARK  342  A    between atoms: _838  and  _840
REMARK  343  A    between atoms: _840  and  _841
REMARK  344  A    between atoms: _840  and  _843
REMARK  345  A    between atoms: _843  and  _844
REMARK  346  A    between atoms: _844  and  _845
REMARK  347  A    between atoms: _845  and  _846
REMARK  348  A    between atoms: _846  and  _847
REMARK  349  A    between atoms: _851  and  _853
REMARK  350  A    between atoms: _853  and  _854
REMARK  351  A    between atoms: _853  and  _856
REMARK  352  A    between atoms: _856  and  _857
REMARK  353  A    between atoms: _862  and  _863
REMARK  354  A    between atoms: _865  and  _867
REMARK  355  A    between atoms: _867  and  _868
REMARK  356  A    between atoms: _871  and  _873
REMARK  357  A    between atoms: _873  and  _874
REMARK                            x       y       z     vdW  Elec       q    Type
REMARK                         _______ _______ _______ _____ _____    ______ ____
ROOT
ATOM      1  NE  ARG A   1      19.804  49.670  49.871  0.00  0.00    -0.265 N 
ATOM      2  HE  ARG A   1      19.720  48.949  50.615  0.00  0.00    +0.259 HD
ATOM      3  CZ  ARG A   1      19.776  49.264  48.596  0.00  0.00    +0.342 C 
ATOM      4  NH2 ARG A   1      19.567  47.973  48.323  0.00  0.00    -0.292 N 
ATOM      5 HH21 ARG A   1      19.428  47.294  49.098  0.00  0.00    +0.255 HD
ATOM      6 HH22 ARG A   1      19.543  47.647  47.336  0.00  0.00    +0.255 HD
ATOM      7  NH1 ARG A   1      19.874  50.142  47.588  0.00  0.00    -0.292 N 
ATOM      8 HH11 ARG A   1      19.974  51.157  47.791  0.00  0.00    +0.255 HD
ATOM      9 HH12 ARG A   1      19.850  49.808  46.603  0.00  0.00    +0.255 HD
ENDROOT
BRANCH   1  10
ATOM     10  CD  ARG A   1      19.947  51.086  50.286  0.00  0.00    +0.174 C 
BRANCH  10  11
ATOM     11  CG  ARG A   1      20.297  51.264  51.793  0.00  0.00    +0.045 C 
BRANCH  11  12
ATOM     12  CB  ARG A   1      19.324  50.533  52.741  0.00  0.00    +0.029 C 
BRANCH  12  13
ATOM     13  CA  ARG A   1      19.515  50.863  54.224  0.00  0.00    +0.133 C 
BRANCH  13  14
ATOM     14  N   ARG A   1      19.187  52.259  54.452  0.00  0.00    -0.239 NA
ATOM     15  H   ARG A   1      19.945  52.971  54.434  0.00  0.00    +0.142 HD
ENDBRANCH  13  14
BRANCH  13  16
ATOM     16  C   ARG A   1      20.994  50.703  54.620  0.00  0.00    +0.224 C 
ATOM     17  O   ARG A   1      21.732  51.684  54.633  0.00  0.00    -0.287 OA
ENDBRANCH  13  16
ENDBRANCH  12  13
ENDBRANCH  11  12
ENDBRANCH  10  11
ENDBRANCH   1  10
TORSDOF 6
REMARK  Name = ../refined-set-2016/2xei/2xei_pocket.pdb
REMARK  357 active torsions:
REMARK  status: ('A' for Active; 'I' for Inactive)
REMARK    1  A    between atoms: _1  and  _3
REMARK    2  A    between atoms: _3  and  _4
REMARK    3  A    between atoms: _7  and  _9
REMARK    4  A    between atoms: _9  and  _10
REMARK    5  A    between atoms: _9  and  _12
REMARK    6  A    between atoms: _12  and  _13
REMARK    7  A    between atoms: _19  and  _21
REMARK    8  A    between atoms: _21  and  _22
REMARK    9  A    between atoms: _24  and  _26
REMARK   10  A    between atoms: _26  and  _27
REMARK   11  A    between atoms: _26  and  _29
REMARK   12  A    between atoms: _29  and  _30
REMARK   13  A    between atoms: _30  and  _31
REMARK   14  A    between atoms: _31  and  _32
REMARK   15  A    between atoms: _32  and  _33
REMARK   16  A    between atoms: _37  and  _39
REMARK   17  A    between atoms: _39  and  _40
REMARK   18  A    between atoms: _39  and  _42
REMARK   19  A    between atoms: _45  and  _47
REMARK   20  A    between atoms: _47  and  _48
REMARK   21  A    between atoms: _47  and  _50
REMARK   22  A    between atoms: _50  and  _51
REMARK   23  A    between atoms: _57  and  _59
REMARK   24  A    between atoms: _59  and  _60
REMARK   25  A    between atoms: _59  and  _62
REMARK   26  A    between atoms: _62  and  _63
REMARK   27  A    between atoms: _63  and  _64
REMARK   28  A    between atoms: _64  and  _65
REMARK   29  A    between atoms: _74  and  _76
REMARK   30  A    between atoms: _76  and  _77
REMARK   31  A    between atoms: _79  and  _81
REMARK   32  A    between atoms: _81  and  _82
REMARK   33  A    between atoms: _81  and  _84
REMARK   34  A    between atoms: _84  and  _85
REMARK   35  A    between atoms: _90  and  _91
REMARK   36  A    between atoms: _93  and  _95
REMARK   37  A    between atoms: _95  and  _96
REMARK   38  A    between atoms: _95  and  _98
REMARK   39  A    between atoms: _98  and  _99
REMARK   40  A    between atoms: _99  and  _100
REMARK   41  A    between atoms: _105  and  _107
REMARK   42  A    between atoms: _107  and  _108
REMARK   43  A    between atoms: _107  and  _110
REMARK   44  A    between atoms: _110  and  _111
REMARK   45  A    between atoms: _111  and  _112
REMARK   46  A    between atoms: _112  and  _113
REMARK   47  A    between atoms: _122  and  _124
REMARK   48  A    between atoms: _124  and  _125
REMARK   49  A    between atoms: _127  and  _129
REMARK   50  A    between atoms: _129  and  _130
REMARK   51  A    between atoms: _129  and  _132
REMARK   52  A    between atoms: _132  and  _133
REMARK   53  A    between atoms: _138  and  _140
REMARK   54  A    between atoms: _140  and  _141
REMARK   55  A    between atoms: _140  and  _143
REMARK   56  A    between atoms: _143  and  _144
REMARK   57  A    between atoms: _147  and  _149
REMARK   58  A    between atoms: _149  and  _150
REMARK   59  A    between atoms: _149  and  _152
REMARK   60  A    between atoms: _152  and  _153
REMARK   61  A    between atoms: _156  and  _158
REMARK   62  A    between atoms: _158  and  _159
REMARK   63  A    between atoms: _158  and  _161
REMARK   64  A    between atoms: _161  and  _162
REMARK   65  A    between atoms: _167  and  _169
REMARK   66  A    between atoms: _169  and  _170
REMARK   67  A    between atoms: _169  and  _172
REMARK   68  A    between atoms: _172  and  _173
REMARK   69  A    between atoms: _176  and  _178
REMARK   70  A    between atoms: _178  and  _179
REMARK   71  A    between atoms: _178  and  _181
REMARK   72  A    between atoms: _181  and  _182
REMARK   73  A    between atoms: _187  and  _189
REMARK   74  A    between atoms: _189  and  _190
REMARK   75  A    between atoms: _192  and  _194
REMARK   76  A    between atoms: _194  and  _195
REMARK   77  A    between atoms: _194  and  _197
REMARK   78  A    between atoms: _197  and  _198
REMARK   79  A    between atoms: _202  and  ZN_877
REMARK   80  A    between atoms: _203  and  _205
REMARK   81  A    between atoms: _205  and  _206
REMARK   82  A    between atoms: _205  and  _208
REMARK   83  A    between atoms: _208  and  _209
REMARK   84  A    between atoms: _212  and  _214
REMARK   85  A    between atoms: _214  and  _215
REMARK   86  A    between atoms: _214  and  _217
REMARK   87  A    between atoms: _217  and  _218
REMARK   88  A    between atoms: _228  and  _230
REMARK   89  A    between atoms: _230  and  _231
REMARK   90  A    between atoms: _230  and  _233
REMARK   91  A    between atoms: _233  and  _234
REMARK   92  A    between atoms: _237  and  _239
REMARK   93  A    between atoms: _239  and  _240
REMARK   94  A    between atoms: _239  and  _242
REMARK   95  A    between atoms: _242  and  _243
REMARK   96  A    between atoms: _243  and  _244
REMARK   97  A    between atoms: _243  and  _245
REMARK   98  A    between atoms: _244  and  ZN_877
REMARK   99  A    between atoms: _245  and  ZN_876
REMARK  100  A    between atoms: _247  and  _248
REMARK  101  A    between atoms: _253  and  _255
REMARK  102  A    between atoms: _255  and  _256
REMARK  103  A    between atoms: _259  and  _261
REMARK  104  A    between atoms: _261  and  _262
REMARK  105  A    between atoms: _261  and  _264
REMARK  106  A    between atoms: _264  and  _265
REMARK  107  A    between atoms: _265  and  _266
REMARK  108  A    between atoms: _269  and  _271
REMARK  109  A    between atoms: _271  and  _272
REMARK  110  A    between atoms: _271  and  _274
REMARK  111  A    between atoms: _274  and  _275
REMARK  112  A    between atoms: _275  and  _276
REMARK  113  A    between atoms: _276  and  _278
REMARK  114  A    between atoms: _278  and  ZN_876
REMARK  115  A    between atoms: _279  and  _281
REMARK  116  A    between atoms: _281  and  _282
REMARK  117  A    between atoms: _281  and  _284
REMARK  118  A    between atoms: _284  and  _285
REMARK  119  A    between atoms: _291  and  _293
REMARK  120  A    between atoms: _293  and  _294
REMARK  121  A    between atoms: _296  and  _298
REMARK  122  A    between atoms: _298  and  _299
REMARK  123  A    between atoms: _298  and  _301
REMARK  124  A    between atoms: _301  and  _302
REMARK  125  A    between atoms: _305  and  _307
REMARK  126  A    between atoms: _307  and  _308
REMARK  127  A    between atoms: _307  and  _310
REMARK  128  A    between atoms: _310  and  _311
REMARK  129  A    between atoms: _314  and  _316
REMARK  130  A    between atoms: _316  and  _317
REMARK  131  A    between atoms: _316  and  _319
REMARK  132  A    between atoms: _319  and  _320
REMARK  133  A    between atoms: _325  and  _327
REMARK  134  A    between atoms: _327  and  _328
REMARK  135  A    between atoms: _327  and  _330
REMARK  136  A    between atoms: _330  and  _331
REMARK  137  A    between atoms: _331  and  _333
REMARK  138  A    between atoms: _333  and  ZN_877
REMARK  139  A    between atoms: _334  and  _336
REMARK  140  A    between atoms: _336  and  _337
REMARK  141  A    between atoms: _336  and  _339
REMARK  142  A    between atoms: _339  and  _340
REMARK  143  A    between atoms: _342  and  _344
REMARK  144  A    between atoms: _344  and  _345
REMARK  145  A    between atoms: _344  and  _347
REMARK  146  A    between atoms: _347  and  _348
REMARK  147  A    between atoms: _350  and  _352
REMARK  148  A    between atoms: _352  and  _353
REMARK  149  A    between atoms: _352  and  _355
REMARK  150  A    between atoms: _355  and  _356
REMARK  151  A    between atoms: _359  and  _361
REMARK  152  A    between atoms: _361  and  _362
REMARK  153  A    between atoms: _361  and  _364
REMARK  154  A    between atoms: _364  and  _365
REMARK  155  A    between atoms: _365  and  _366
REMARK  156  A    between atoms: _369  and  _371
REMARK  157  A    between atoms: _371  and  _372
REMARK  158  A    between atoms: _371  and  _374
REMARK  159  A    between atoms: _374  and  _375
REMARK  160  A    between atoms: _380  and  _381
REMARK  161  A    between atoms: _383  and  _385
REMARK  162  A    between atoms: _385  and  _386
REMARK  163  A    between atoms: _385  and  _388
REMARK  164  A    between atoms: _388  and  _389
REMARK  165  A    between atoms: _392  and  _394
REMARK  166  A    between atoms: _394  and  _395
REMARK  167  A    between atoms: _394  and  _397
REMARK  168  A    between atoms: _397  and  _398
REMARK  169  A    between atoms: _401  and  _403
REMARK  170  A    between atoms: _403  and  _404
REMARK  171  A    between atoms: _403  and  _406
REMARK  172  A    between atoms: _406  and  _407
REMARK  173  A    between atoms: _407  and  _408
REMARK  174  A    between atoms: _408  and  _409
REMARK  175  A    between atoms: _418  and  _420
REMARK  176  A    between atoms: _420  and  _421
REMARK  177  A    between atoms: _420  and  _423
REMARK  178  A    between atoms: _426  and  _428
REMARK  179  A    between atoms: _428  and  _429
REMARK  180  A    between atoms: _428  and  _431
REMARK  181  A    between atoms: _431  and  _432
REMARK  182  A    between atoms: _435  and  _437
REMARK  183  A    between atoms: _437  and  _438
REMARK  184  A    between atoms: _437  and  _440
REMARK  185  A    between atoms: _440  and  _441
REMARK  186  A    between atoms: _451  and  _453
REMARK  187  A    between atoms: _453  and  _454
REMARK  188  A    between atoms: _453  and  _456
REMARK  189  A    between atoms: _456  and  _457
REMARK  190  A    between atoms: _457  and  _458
REMARK  191  A    between atoms: _458  and  _459
REMARK  192  A    between atoms: _459  and  _460
REMARK  193  A    between atoms: _464  and  _466
REMARK  194  A    between atoms: _466  and  _467
REMARK  195  A    between atoms: _466  and  _469
REMARK  196  A    between atoms: _469  and  _470
REMARK  197  A    between atoms: _473  and  _474
REMARK  198  A    between atoms: _479  and  _481
REMARK  199  A    between atoms: _481  and  _482
REMARK  200  A    between atoms: _481  and  _484
REMARK  201  A    between atoms: _484  and  _485
REMARK  202  A    between atoms: _485  and  _486
REMARK  203  A    between atoms: _486  and  _487
REMARK  204  A    between atoms: _496  and  _498
REMARK  205  A    between atoms: _498  and  _499
REMARK  206  A    between atoms: _498  and  _501
REMARK  207  A    between atoms: _501  and  _502
REMARK  208  A    between atoms: _505  and  _507
REMARK  209  A    between atoms: _507  and  _508
REMARK  210  A    between atoms: _507  and  _510
REMARK  211  A    between atoms: _510  and  _511
REMARK  212  A    between atoms: _513  and  _515
REMARK  213  A    between atoms: _515  and  _516
REMARK  214  A    between atoms: _515  and  _518
REMARK  215  A    between atoms: _518  and  _519
REMARK  216  A    between atoms: _519  and  _520
REMARK  217  A    between atoms: _520  and  _521
REMARK  218  A    between atoms: _521  and  _522
REMARK  219  A    between atoms: _526  and  _528
REMARK  220  A    between atoms: _528  and  _529
REMARK  221  A    between atoms: _528  and  _531
REMARK  222  A    between atoms: _531  and  _532
REMARK  223  A    between atoms: _535  and  _537
REMARK  224  A    between atoms: _537  and  _538
REMARK  225  A    between atoms: _540  and  _542
REMARK  226  A    between atoms: _542  and  _543
REMARK  227  A    between atoms: _542  and  _545
REMARK  228  A    between atoms: _545  and  _546
REMARK  229  A    between atoms: _548  and  _550
REMARK  230  A    between atoms: _550  and  _551
REMARK  231  A    between atoms: _553  and  _555
REMARK  232  A    between atoms: _555  and  _556
REMARK  233  A    between atoms: _555  and  _558
REMARK  234  A    between atoms: _558  and  _559
REMARK  235  A    between atoms: _564  and  _566
REMARK  236  A    between atoms: _566  and  _567
REMARK  237  A    between atoms: _566  and  _569
REMARK  238  A    between atoms: _569  and  _570
REMARK  239  A    between atoms: _573  and  _575
REMARK  240  A    between atoms: _575  and  _576
REMARK  241  A    between atoms: _575  and  _578
REMARK  242  A    between atoms: _578  and  _579
REMARK  243  A    between atoms: _585  and  _587
REMARK  244  A    between atoms: _587  and  _588
REMARK  245  A    between atoms: _587  and  _590
REMARK  246  A    between atoms: _590  and  _591
REMARK  247  A    between atoms: _591  and  _592
REMARK  248  A    between atoms: _595  and  _597
REMARK  249  A    between atoms: _597  and  _598
REMARK  250  A    between atoms: _597  and  _600
REMARK  251  A    between atoms: _600  and  _601
REMARK  252  A    between atoms: _601  and  _602
REMARK  253  A    between atoms: _602  and  _603
REMARK  254  A    between atoms: _612  and  _614
REMARK  255  A    between atoms: _614  and  _615
REMARK  256  A    between atoms: _614  and  _617
REMARK  257  A    between atoms: _617  and  _618
REMARK  258  A    between atoms: _618  and  _619
REMARK  259  A    between atoms: _619  and  _620
REMARK  260  A    between atoms: _629  and  _631
REMARK  261  A    between atoms: _631  and  _632
REMARK  262  A    between atoms: _631  and  _634
REMARK  263  A    between atoms: _634  and  _635
REMARK  264  A    between atoms: _640  and  _641
REMARK  265  A    between atoms: _643  and  _645
REMARK  266  A    between atoms: _645  and  _646
REMARK  267  A    between atoms: _645  and  _648
REMARK  268  A    between atoms: _648  and  _649
REMARK  269  A    between atoms: _652  and  _654
REMARK  270  A    between atoms: _654  and  _655
REMARK  271  A    between atoms: _654  and  _657
REMARK  272  A    between atoms: _657  and  _658
REMARK  273  A    between atoms: _658  and  _659
REMARK  274  A    between atoms: _659  and  _660
REMARK  275  A    between atoms: _660  and  _661
REMARK  276  A    between atoms: _665  and  _667
REMARK  277  A    between atoms: _667  and  _668
REMARK  278  A    between atoms: _667  and  _670
REMARK  279  A    between atoms: _670  and  _671
REMARK  280  A    between atoms: _676  and  _678
REMARK  281  A    between atoms: _678  and  _679
REMARK  282  A    between atoms: _678  and  _681
REMARK  283  A    between atoms: _681  and  _682
REMARK  284  A    between atoms: _692  and  _694
REMARK  285  A    between atoms: _694  and  _695
REMARK  286  A    between atoms: _694  and  _697
REMARK  287  A    between atoms: _697  and  _698
REMARK  288  A    between atoms: _698  and  _699
REMARK  289  A    between atoms: _702  and  _704
REMARK  290  A    between atoms: _704  and  _705
REMARK  291  A    between atoms: _704  and  _707
REMARK  292  A    between atoms: _707  and  _708
REMARK  293  A    between atoms: _711  and  _713
REMARK  294  A    between atoms: _713  and  _714
REMARK  295  A    between atoms: _713  and  _716
REMARK  296  A    between atoms: _716  and  _717
REMARK  297  A    between atoms: _722  and  _724
REMARK  298  A    between atoms: _724  and  _725
REMARK  299  A    between atoms: _724  and  _727
REMARK  300  A    between atoms: _727  and  _728
REMARK  301  A    between atoms: _734  and  _736
REMARK  302  A    between atoms: _736  and  _737
REMARK  303  A    between atoms: _736  and  _739
REMARK  304  A    between atoms: _739  and  _740
REMARK  305  A    between atoms: _742  and  _744
REMARK  306  A    between atoms: _744  and  _745
REMARK  307  A    between atoms: _747  and  _749
REMARK  308  A    between atoms: _749  and  _750
REMARK  309  A    between atoms: _749  and  _752
REMARK  310  A    between atoms: _752  and  _753
REMARK  311  A    between atoms: _758  and  _759
REMARK  312  A    between atoms: _761  and  _763
REMARK  313  A    between atoms: _763  and  _764
REMARK  314  A    between atoms: _763  and  _766
REMARK  315  A    between atoms: _766  and  _767
REMARK  316  A    between atoms: _772  and  _773
REMARK  317  A    between atoms: _775  and  _777
REMARK  318  A    between atoms: _777  and  _778
REMARK  319  A    between atoms: _777  and  _780
REMARK  320  A    between atoms: _780  and  _781
REMARK  321  A    between atoms: _785  and  ZN_876
REMARK  322  A    between atoms: _786  and  _788
REMARK  323  A    between atoms: _788  and  _789
REMARK  324  A    between atoms: _788  and  _791
REMARK  325  A    between atoms: _791  and  _792
REMARK  326  A    between atoms: _792  and  _793
REMARK  327  A    between atoms: _796  and  _798
REMARK  328  A    between atoms: _798  and  _799
REMARK  329  A    between atoms: _798  and  _801
REMARK  330  A    between atoms: _801  and  _802
REMARK  331  A    between atoms: _802  and  _803
REMARK  332  A    between atoms: _803  and  _804
REMARK  333  A    between atoms: _813  and  _815
REMARK  334  A    between atoms: _815  and  _816
REMARK  335  A    between atoms: _815  and  _818
REMARK  336  A    between atoms: _818  and  _819
REMARK  337  A    between atoms: _824  and  _825
REMARK  338  A    between atoms: _827  and  _829
REMARK  339  A    between atoms: _829  and  _830
REMARK  340  A    between atoms: _829  and  _832
REMARK  341  A    between atoms: _832  and  _833
REMARK  342  A    between atoms: _838  and  _840
REMARK  343  A    between atoms: _840  and  _841
REMARK  344  A    between atoms: _840  and  _843
REMARK  345  A    between atoms: _843  and  _844
REMARK  346  A    between atoms: _844  and  _845
REMARK  347  A    between atoms: _845  and  _846
REMARK  348  A    between atoms: _846  and  _847
REMARK  349  A    between atoms: _851  and  _853
REMARK  350  A    between atoms: _853  and  _854
REMARK  351  A    between atoms: _853  and  _856
REMARK  352  A    between atoms: _856  and  _857
REMARK  353  A    between atoms: _862  and  _863
REMARK  354  A    between atoms: _865  and  _867
REMARK  355  A    between atoms: _867  and  _868
REMARK  356  A    between atoms: _871  and  _873
REMARK  357  A    between atoms: _873  and  _874
REMARK                            x       y       z     vdW  Elec       q    Type
REMARK                         _______ _______ _______ _____ _____    ______ ____
ROOT
ATOM      1  C   LYS A   4      34.326  46.081  49.475  0.00  0.00    +0.241 C 
ATOM      2  O   LYS A   4      33.828  47.167  49.757  0.00  0.00    -0.273 OA
ATOM      3  N   ASN A   5      35.632  45.899  49.285  0.00  0.00    -0.297 N 
ATOM      4  H   ASN A   5      36.005  44.930  49.220  0.00  0.00    +0.150 HD
ENDROOT
BRANCH   3   5
ATOM      5  CA  ASN A   5      36.544  47.016  49.167  0.00  0.00    +0.158 C 
BRANCH   5   6
ATOM      6  C   ASN A   5      36.439  47.546  47.769  0.00  0.00    +0.241 C 
ATOM      7  N   TRP A   6      35.859  48.717  47.617  0.00  0.00    -0.297 N 
ATOM      8  H   TRP A   6      35.565  49.248  48.461  0.00  0.00    +0.150 HD
ATOM      9  O   ASN A   5      36.937  46.915  46.840  0.00  0.00    -0.273 OA
BRANCH   7  10
ATOM     10  CA  TRP A   6      35.618  49.289  46.303  0.00  0.00    +0.153 C 
BRANCH  10  11
ATOM     11  C   TRP A   6      36.885  49.740  45.560  0.00  0.00    +0.241 C 
ATOM     12  N   GLU A   7      38.007  49.931  46.253  0.00  0.00    -0.297 N 
ATOM     13  H   GLU A   7      38.044  49.733  47.273  0.00  0.00    +0.150 HD
ATOM     14  O   TRP A   6      36.835  49.907  44.346  0.00  0.00    -0.273 OA
BRANCH  12  15
ATOM     15  CA  GLU A   7      39.184  50.426  45.543  0.00  0.00    +0.149 C 
BRANCH  15  16
ATOM     16  C   GLU A   7      39.881  49.277  44.832  0.00  0.00    +0.241 C 
ATOM     17  N   THR A   8      40.075  48.180  45.545  0.00  0.00    -0.295 N 
ATOM     18  H   THR A   8      39.730  48.128  46.525  0.00  0.00    +0.150 HD
ATOM     19  O   GLU A   7      40.229  49.374  43.649  0.00  0.00    -0.273 OA
BRANCH  17  20
ATOM     20  CA  THR A   8      40.769  47.050  44.960  0.00  0.00    +0.176 C 
BRANCH  20  21
ATOM     21  C   THR A   8      39.839  46.205  44.079  0.00  0.00    +0.243 C 
ATOM     22  N   ASN A   9      38.534  46.482  44.142  0.00  0.00    -0.298 N 
ATOM     23  H   ASN A   9      38.217  47.283  44.724  0.00  0.00    +0.150 HD
ATOM     24  O   THR A   8      40.299  45.325  43.352  0.00  0.00    -0.273 OA
BRANCH  22  25
ATOM     25  CA  ASN A   9      37.529  45.689  43.413  0.00  0.00    +0.146 C 
BRANCH  25  26
ATOM     26  C   ASN A   9      36.779  46.467  42.348  0.00  0.00    +0.227 C 
ATOM     27  O   ASN A   9      35.944  47.327  42.640  0.00  0.00    -0.286 OA
ENDBRANCH  25  26
BRANCH  25  28
ATOM     28  CB  ASN A   9      36.523  45.010  44.357  0.00  0.00    +0.112 C 
BRANCH  28  29
ATOM     29  CG  ASN A   9      37.166  43.927  45.225  0.00  0.00    +0.222 C 
ATOM     30  ND2 ASN A   9      37.067  44.094  46.560  0.00  0.00    -0.329 N 
ATOM     31 HD21 ASN A   9      37.482  43.391  47.204  0.00  0.00    +0.145 HD
ATOM     32 HD22 ASN A   9      36.576  44.926  46.945  0.00  0.00    +0.145 HD
ATOM     33  OD1 ASN A   9      37.746  42.945  44.707  0.00  0.00    -0.275 OA
ENDBRANCH  28  29
ENDBRANCH  25  28
ENDBRANCH  22  25
ENDBRANCH  20  21
BRANCH  20  34
ATOM     34  CB  THR A   8      41.463  46.196  46.046  0.00  0.00    +0.137 C 
ATOM     35  CG2 THR A   8      42.404  47.072  46.909  0.00  0.00    +0.034 C 
BRANCH  34  36
ATOM     36  OG1 THR A   8      40.477  45.573  46.883  0.00  0.00    -0.382 OA
ATOM     37  HG1 THR A   8      40.930  45.029  47.575  0.00  0.00    +0.210 HD
ENDBRANCH  34  36
ENDBRANCH  20  34
ENDBRANCH  17  20
ENDBRANCH  15  16
BRANCH  15  38
ATOM     38  CB  GLU A   7      40.195  51.142  46.436  0.00  0.00    +0.041 C 
BRANCH  38  39
ATOM     39  CG  GLU A   7      39.852  51.276  47.895  0.00  0.00    +0.116 C 
BRANCH  39  40
ATOM     40  CD  GLU A   7      41.069  50.915  48.771  0.00  0.00    +0.365 C 
ATOM     41  OE2 GLU A   7      41.501  51.768  49.592  0.00  0.00    -0.246 OA
ATOM     42  OE1 GLU A   7      41.611  49.782  48.625  0.00  0.00    -0.246 OA
ENDBRANCH  39  40
ENDBRANCH  38  39
ENDBRANCH  15  38
ENDBRANCH  12  15
ENDBRANCH  10  11
BRANCH  10  43
ATOM     43  CB  TRP A   6      34.610  50.432  46.417  0.00  0.00    +0.057 C 
BRANCH  43  44
ATOM     44  CG  TRP A   6      33.267  49.879  46.790  0.00  0.00    -0.002 A 
ATOM     45  CD1 TRP A   6      32.958  49.184  47.932  0.00  0.00    +0.068 A 
ATOM     46  NE1 TRP A   6      31.649  48.803  47.924  0.00  0.00    -0.352 N 
ATOM     47  HE1 TRP A   6      31.165  48.282  48.683  0.00  0.00    +0.166 HD
ATOM     48  CE2 TRP A   6      31.078  49.218  46.754  0.00  0.00    +0.056 A 
ATOM     49  CZ2 TRP A   6      29.760  49.073  46.298  0.00  0.00    +0.017 A 
ATOM     50  CH2 TRP A   6      29.450  49.620  45.076  0.00  0.00    +0.001 A 
ATOM     51  CZ3 TRP A   6      30.424  50.317  44.307  0.00  0.00    +0.000 A 
ATOM     52  CE3 TRP A   6      31.741  50.460  44.766  0.00  0.00    +0.001 A 
ATOM     53  CD2 TRP A   6      32.078  49.907  46.014  0.00  0.00    +0.013 A 
ENDBRANCH  43  44
ENDBRANCH  10  43
ENDBRANCH   7  10
ENDBRANCH   5   6
BRANCH   5  54
ATOM     54  CB  ASN A   5      37.988  46.543  49.356  0.00  0.00    +0.114 C 
BRANCH  54  55
ATOM     55  CG  ASN A   5      38.993  47.704  49.273  0.00  0.00    +0.222 C 
ATOM     56  ND2 ASN A   5      40.200  47.444  49.723  0.00  0.00    -0.329 N 
ATOM     57 HD21 ASN A   5      40.426  46.497  50.088  0.00  0.00    +0.145 HD
ATOM     58 HD22 ASN A   5      40.929  48.185  49.714  0.00  0.00    +0.145 HD
ATOM     59  OD1 ASN A   5      38.667  48.821  48.824  0.00  0.00    -0.275 OA
ENDBRANCH  54  55
ENDBRANCH   5  54
ENDBRANCH   3   5
BRANCH   1  60
ATOM     60  CA  LYS A   4      33.451  44.837  49.370  0.00  0.00    +0.149 C 
BRANCH  60  63
ATOM     61  C   THR A   3      31.642  45.101  51.020  0.00  0.00    +0.243 C 
ATOM     62  O   THR A   3      32.327  44.788  51.975  0.00  0.00    -0.273 OA
ATOM     63  N   LYS A   4      32.082  45.159  49.759  0.00  0.00    -0.297 N 
ATOM     64  H   LYS A   4      31.414  45.449  49.017  0.00  0.00    +0.150 HD
BRANCH  61  65
ATOM     65  CA  THR A   3      30.147  45.407  51.230  0.00  0.00    +0.176 C 
BRANCH  65  67
ATOM     66  C   TYR A   2      28.626  44.682  52.985  0.00  0.00    +0.241 C 
ATOM     67  N   THR A   3      29.800  45.247  52.645  0.00  0.00    -0.295 N 
ATOM     68  H   THR A   3      30.458  45.569  53.383  0.00  0.00    +0.150 HD
ATOM     69  O   TYR A   2      27.846  44.161  52.162  0.00  0.00    -0.273 OA
BRANCH  66  70
ATOM     70  CA  TYR A   2      28.270  44.729  54.455  0.00  0.00    +0.153 C 
BRANCH  70  73
ATOM     71  C   ARG A   1      26.249  46.070  54.583  0.00  0.00    +0.238 C 
ATOM     72  O   ARG A   1      26.873  47.121  54.638  0.00  0.00    -0.274 OA
ATOM     73  N   TYR A   2      26.814  44.874  54.595  0.00  0.00    -0.297 N 
ATOM     74  H   TYR A   2      26.221  44.027  54.705  0.00  0.00    +0.150 HD
BRANCH  71  75
ATOM     75  CA  ARG A   1      24.748  46.091  54.492  0.00  0.00    +0.145 C 
BRANCH  75  76
ATOM     76  N   ARG A   1      24.368  47.499  54.744  0.00  0.00    -0.238 NA
ATOM     77  H   ARG A   1      25.079  48.255  54.684  0.00  0.00    +0.142 HD
ENDBRANCH  75  76
BRANCH  75  78
ATOM     78  CB  ARG A   1      24.333  45.587  53.087  0.00  0.00    +0.030 C 
BRANCH  78  79
ATOM     79  CG  ARG A   1      24.891  46.391  51.890  0.00  0.00    +0.045 C 
BRANCH  79  80
ATOM     80  CD  ARG A   1      24.622  45.681  50.556  0.00  0.00    +0.174 C 
BRANCH  80  81
ATOM     81  NE  ARG A   1      23.157  45.438  50.452  0.00  0.00    -0.265 N 
ATOM     82  HE  ARG A   1      22.634  45.241  51.329  0.00  0.00    +0.259 HD
ATOM     83  CZ  ARG A   1      22.472  45.456  49.309  0.00  0.00    +0.342 C 
ATOM     84  NH2 ARG A   1      21.166  45.204  49.299  0.00  0.00    -0.292 N 
ATOM     85 HH21 ARG A   1      20.671  44.991  50.188  0.00  0.00    +0.255 HD
ATOM     86 HH22 ARG A   1      20.640  45.220  48.402  0.00  0.00    +0.255 HD
ATOM     87  NH1 ARG A   1      23.104  45.693  48.173  0.00  0.00    -0.292 N 
ATOM     88 HH11 ARG A   1      24.130  45.864  48.175  0.00  0.00    +0.255 HD
ATOM     89 HH12 ARG A   1      22.576  45.708  47.277  0.00  0.00    +0.255 HD
ENDBRANCH  80  81
ENDBRANCH  79  80
ENDBRANCH  78  79
ENDBRANCH  75  78
ENDBRANCH  71  75
ENDBRANCH  70  73
BRANCH  70  90
ATOM     90  CB  TYR A   2      28.820  43.504  55.231  0.00  0.00    +0.055 C 
BRANCH  90  91
ATOM     91  CG  TYR A   2      29.744  43.989  56.344  0.00  0.00    -0.020 A 
ATOM     92  CD2 TYR A   2      29.226  44.680  57.457  0.00  0.00    -0.001 A 
ATOM     93  CE2 TYR A   2      30.050  45.173  58.488  0.00  0.00    +0.036 A 
ATOM     94  CZ  TYR A   2      31.422  44.951  58.372  0.00  0.00    +0.134 A 
ATOM     95  CE1 TYR A   2      31.962  44.268  57.292  0.00  0.00    +0.036 A 
ATOM     96  CD1 TYR A   2      31.128  43.776  56.271  0.00  0.00    -0.001 A 
BRANCH  94  97
ATOM     97  OH  TYR A   2      32.227  45.452  59.366  0.00  0.00    -0.506 OA
ATOM     98  HH  TYR A   2      32.728  44.710  59.789  0.00  0.00    +0.292 HD
ENDBRANCH  94  97
ENDBRANCH  90  91
ENDBRANCH  70  90
ENDBRANCH  66  70
ENDBRANCH  65  67
BRANCH  65  99
ATOM     99  CB  THR A   3      29.799  46.848  50.714  0.00  0.00    +0.137 C 
ATOM    100  CG2 THR A   3      30.729  47.879  51.386  0.00  0.00    +0.034 C 
BRANCH  99 101
ATOM    101  OG1 THR A   3      29.938  46.882  49.265  0.00  0.00    -0.382 OA
ATOM    102  HG1 THR A   3      29.319  46.224  48.860  0.00  0.00    +0.210 HD
ENDBRANCH  99 101
ENDBRANCH  65  99
ENDBRANCH  61  65
ENDBRANCH  60  63
BRANCH  60 103
ATOM    103  CB  LYS A   4      33.441  44.304  47.917  0.00  0.00    +0.029 C 
BRANCH 103 104
ATOM    104  CG  LYS A   4      33.031  45.382  46.924  0.00  0.00    +0.000 C 
BRANCH 104 105
ATOM    105  CD  LYS A   4      33.097  44.881  45.503  0.00  0.00    -0.024 C 
BRANCH 105 106
ATOM    106  CE  LYS A   4      32.171  45.702  44.596  0.00  0.00    -0.086 C 
BRANCH 106 107
ATOM    107  NZ  LYS A   4      32.591  47.148  44.547  0.00  0.00    +0.380 N 
ATOM    108  HZ1 LYS A   4      32.557  47.550  45.505  0.00  0.00    -0.089 HD
ATOM    109  HZ2 LYS A   4      33.560  47.214  44.176  0.00  0.00    -0.089 HD
ATOM    110  HZ3 LYS A   4      31.944  47.675  43.926  0.00  0.00    -0.089 HD
ENDBRANCH 106 107
ENDBRANCH 105 106
ENDBRANCH 104 105
ENDBRANCH 103 104
ENDBRANCH  60 103
ENDBRANCH   1  60
TORSDOF 43
REMARK  Name = ../refined-set-2016/2xei/2xei_pocket.pdb
REMARK  357 active torsions:
REMARK  status: ('A' for Active; 'I' for Inactive)
REMARK    1  A    between atoms: _1  and  _3
REMARK    2  A    between atoms: _3  and  _4
REMARK    3  A    between atoms: _7  and  _9
REMARK    4  A    between atoms: _9  and  _10
REMARK    5  A    between atoms: _9  and  _12
REMARK    6  A    between atoms: _12  and  _13
REMARK    7  A    between atoms: _19  and  _21
REMARK    8  A    between atoms: _21  and  _22
REMARK    9  A    between atoms: _24  and  _26
REMARK   10  A    between atoms: _26  and  _27
REMARK   11  A    between atoms: _26  and  _29
REMARK   12  A    between atoms: _29  and  _30
REMARK   13  A    between atoms: _30  and  _31
REMARK   14  A    between atoms: _31  and  _32
REMARK   15  A    between atoms: _32  and  _33
REMARK   16  A    between atoms: _37  and  _39
REMARK   17  A    between atoms: _39  and  _40
REMARK   18  A    between atoms: _39  and  _42
REMARK   19  A    between atoms: _45  and  _47
REMARK   20  A    between atoms: _47  and  _48
REMARK   21  A    between atoms: _47  and  _50
REMARK   22  A    between atoms: _50  and  _51
REMARK   23  A    between atoms: _57  and  _59
REMARK   24  A    between atoms: _59  and  _60
REMARK   25  A    between atoms: _59  and  _62
REMARK   26  A    between atoms: _62  and  _63
REMARK   27  A    between atoms: _63  and  _64
REMARK   28  A    between atoms: _64  and  _65
REMARK   29  A    between atoms: _74  and  _76
REMARK   30  A    between atoms: _76  and  _77
REMARK   31  A    between atoms: _79  and  _81
REMARK   32  A    between atoms: _81  and  _82
REMARK   33  A    between atoms: _81  and  _84
REMARK   34  A    between atoms: _84  and  _85
REMARK   35  A    between atoms: _90  and  _91
REMARK   36  A    between atoms: _93  and  _95
REMARK   37  A    between atoms: _95  and  _96
REMARK   38  A    between atoms: _95  and  _98
REMARK   39  A    between atoms: _98  and  _99
REMARK   40  A    between atoms: _99  and  _100
REMARK   41  A    between atoms: _105  and  _107
REMARK   42  A    between atoms: _107  and  _108
REMARK   43  A    between atoms: _107  and  _110
REMARK   44  A    between atoms: _110  and  _111
REMARK   45  A    between atoms: _111  and  _112
REMARK   46  A    between atoms: _112  and  _113
REMARK   47  A    between atoms: _122  and  _124
REMARK   48  A    between atoms: _124  and  _125
REMARK   49  A    between atoms: _127  and  _129
REMARK   50  A    between atoms: _129  and  _130
REMARK   51  A    between atoms: _129  and  _132
REMARK   52  A    between atoms: _132  and  _133
REMARK   53  A    between atoms: _138  and  _140
REMARK   54  A    between atoms: _140  and  _141
REMARK   55  A    between atoms: _140  and  _143
REMARK   56  A    between atoms: _143  and  _144
REMARK   57  A    between atoms: _147  and  _149
REMARK   58  A    between atoms: _149  and  _150
REMARK   59  A    between atoms: _149  and  _152
REMARK   60  A    between atoms: _152  and  _153
REMARK   61  A    between atoms: _156  and  _158
REMARK   62  A    between atoms: _158  and  _159
REMARK   63  A    between atoms: _158  and  _161
REMARK   64  A    between atoms: _161  and  _162
REMARK   65  A    between atoms: _167  and  _169
REMARK   66  A    between atoms: _169  and  _170
REMARK   67  A    between atoms: _169  and  _172
REMARK   68  A    between atoms: _172  and  _173
REMARK   69  A    between atoms: _176  and  _178
REMARK   70  A    between atoms: _178  and  _179
REMARK   71  A    between atoms: _178  and  _181
REMARK   72  A    between atoms: _181  and  _182
REMARK   73  A    between atoms: _187  and  _189
REMARK   74  A    between atoms: _189  and  _190
REMARK   75  A    between atoms: _192  and  _194
REMARK   76  A    between atoms: _194  and  _195
REMARK   77  A    between atoms: _194  and  _197
REMARK   78  A    between atoms: _197  and  _198
REMARK   79  A    between atoms: _202  and  ZN_877
REMARK   80  A    between atoms: _203  and  _205
REMARK   81  A    between atoms: _205  and  _206
REMARK   82  A    between atoms: _205  and  _208
REMARK   83  A    between atoms: _208  and  _209
REMARK   84  A    between atoms: _212  and  _214
REMARK   85  A    between atoms: _214  and  _215
REMARK   86  A    between atoms: _214  and  _217
REMARK   87  A    between atoms: _217  and  _218
REMARK   88  A    between atoms: _228  and  _230
REMARK   89  A    between atoms: _230  and  _231
REMARK   90  A    between atoms: _230  and  _233
REMARK   91  A    between atoms: _233  and  _234
REMARK   92  A    between atoms: _237  and  _239
REMARK   93  A    between atoms: _239  and  _240
REMARK   94  A    between atoms: _239  and  _242
REMARK   95  A    between atoms: _242  and  _243
REMARK   96  A    between atoms: _243  and  _244
REMARK   97  A    between atoms: _243  and  _245
REMARK   98  A    between atoms: _244  and  ZN_877
REMARK   99  A    between atoms: _245  and  ZN_876
REMARK  100  A    between atoms: _247  and  _248
REMARK  101  A    between atoms: _253  and  _255
REMARK  102  A    between atoms: _255  and  _256
REMARK  103  A    between atoms: _259  and  _261
REMARK  104  A    between atoms: _261  and  _262
REMARK  105  A    between atoms: _261  and  _264
REMARK  106  A    between atoms: _264  and  _265
REMARK  107  A    between atoms: _265  and  _266
REMARK  108  A    between atoms: _269  and  _271
REMARK  109  A    between atoms: _271  and  _272
REMARK  110  A    between atoms: _271  and  _274
REMARK  111  A    between atoms: _274  and  _275
REMARK  112  A    between atoms: _275  and  _276
REMARK  113  A    between atoms: _276  and  _278
REMARK  114  A    between atoms: _278  and  ZN_876
REMARK  115  A    between atoms: _279  and  _281
REMARK  116  A    between atoms: _281  and  _282
REMARK  117  A    between atoms: _281  and  _284
REMARK  118  A    between atoms: _284  and  _285
REMARK  119  A    between atoms: _291  and  _293
REMARK  120  A    between atoms: _293  and  _294
REMARK  121  A    between atoms: _296  and  _298
REMARK  122  A    between atoms: _298  and  _299
REMARK  123  A    between atoms: _298  and  _301
REMARK  124  A    between atoms: _301  and  _302
REMARK  125  A    between atoms: _305  and  _307
REMARK  126  A    between atoms: _307  and  _308
REMARK  127  A    between atoms: _307  and  _310
REMARK  128  A    between atoms: _310  and  _311
REMARK  129  A    between atoms: _314  and  _316
REMARK  130  A    between atoms: _316  and  _317
REMARK  131  A    between atoms: _316  and  _319
REMARK  132  A    between atoms: _319  and  _320
REMARK  133  A    between atoms: _325  and  _327
REMARK  134  A    between atoms: _327  and  _328
REMARK  135  A    between atoms: _327  and  _330
REMARK  136  A    between atoms: _330  and  _331
REMARK  137  A    between atoms: _331  and  _333
REMARK  138  A    between atoms: _333  and  ZN_877
REMARK  139  A    between atoms: _334  and  _336
REMARK  140  A    between atoms: _336  and  _337
REMARK  141  A    between atoms: _336  and  _339
REMARK  142  A    between atoms: _339  and  _340
REMARK  143  A    between atoms: _342  and  _344
REMARK  144  A    between atoms: _344  and  _345
REMARK  145  A    between atoms: _344  and  _347
REMARK  146  A    between atoms: _347  and  _348
REMARK  147  A    between atoms: _350  and  _352
REMARK  148  A    between atoms: _352  and  _353
REMARK  149  A    between atoms: _352  and  _355
REMARK  150  A    between atoms: _355  and  _356
REMARK  151  A    between atoms: _359  and  _361
REMARK  152  A    between atoms: _361  and  _362
REMARK  153  A    between atoms: _361  and  _364
REMARK  154  A    between atoms: _364  and  _365
REMARK  155  A    between atoms: _365  and  _366
REMARK  156  A    between atoms: _369  and  _371
REMARK  157  A    between atoms: _371  and  _372
REMARK  158  A    between atoms: _371  and  _374
REMARK  159  A    between atoms: _374  and  _375
REMARK  160  A    between atoms: _380  and  _381
REMARK  161  A    between atoms: _383  and  _385
REMARK  162  A    between atoms: _385  and  _386
REMARK  163  A    between atoms: _385  and  _388
REMARK  164  A    between atoms: _388  and  _389
REMARK  165  A    between atoms: _392  and  _394
REMARK  166  A    between atoms: _394  and  _395
REMARK  167  A    between atoms: _394  and  _397
REMARK  168  A    between atoms: _397  and  _398
REMARK  169  A    between atoms: _401  and  _403
REMARK  170  A    between atoms: _403  and  _404
REMARK  171  A    between atoms: _403  and  _406
REMARK  172  A    between atoms: _406  and  _407
REMARK  173  A    between atoms: _407  and  _408
REMARK  174  A    between atoms: _408  and  _409
REMARK  175  A    between atoms: _418  and  _420
REMARK  176  A    between atoms: _420  and  _421
REMARK  177  A    between atoms: _420  and  _423
REMARK  178  A    between atoms: _426  and  _428
REMARK  179  A    between atoms: _428  and  _429
REMARK  180  A    between atoms: _428  and  _431
REMARK  181  A    between atoms: _431  and  _432
REMARK  182  A    between atoms: _435  and  _437
REMARK  183  A    between atoms: _437  and  _438
REMARK  184  A    between atoms: _437  and  _440
REMARK  185  A    between atoms: _440  and  _441
REMARK  186  A    between atoms: _451  and  _453
REMARK  187  A    between atoms: _453  and  _454
REMARK  188  A    between atoms: _453  and  _456
REMARK  189  A    between atoms: _456  and  _457
REMARK  190  A    between atoms: _457  and  _458
REMARK  191  A    between atoms: _458  and  _459
REMARK  192  A    between atoms: _459  and  _460
REMARK  193  A    between atoms: _464  and  _466
REMARK  194  A    between atoms: _466  and  _467
REMARK  195  A    between atoms: _466  and  _469
REMARK  196  A    between atoms: _469  and  _470
REMARK  197  A    between atoms: _473  and  _474
REMARK  198  A    between atoms: _479  and  _481
REMARK  199  A    between atoms: _481  and  _482
REMARK  200  A    between atoms: _481  and  _484
REMARK  201  A    between atoms: _484  and  _485
REMARK  202  A    between atoms: _485  and  _486
REMARK  203  A    between atoms: _486  and  _487
REMARK  204  A    between atoms: _496  and  _498
REMARK  205  A    between atoms: _498  and  _499
REMARK  206  A    between atoms: _498  and  _501
REMARK  207  A    between atoms: _501  and  _502
REMARK  208  A    between atoms: _505  and  _507
REMARK  209  A    between atoms: _507  and  _508
REMARK  210  A    between atoms: _507  and  _510
REMARK  211  A    between atoms: _510  and  _511
REMARK  212  A    between atoms: _513  and  _515
REMARK  213  A    between atoms: _515  and  _516
REMARK  214  A    between atoms: _515  and  _518
REMARK  215  A    between atoms: _518  and  _519
REMARK  216  A    between atoms: _519  and  _520
REMARK  217  A    between atoms: _520  and  _521
REMARK  218  A    between atoms: _521  and  _522
REMARK  219  A    between atoms: _526  and  _528
REMARK  220  A    between atoms: _528  and  _529
REMARK  221  A    between atoms: _528  and  _531
REMARK  222  A    between atoms: _531  and  _532
REMARK  223  A    between atoms: _535  and  _537
REMARK  224  A    between atoms: _537  and  _538
REMARK  225  A    between atoms: _540  and  _542
REMARK  226  A    between atoms: _542  and  _543
REMARK  227  A    between atoms: _542  and  _545
REMARK  228  A    between atoms: _545  and  _546
REMARK  229  A    between atoms: _548  and  _550
REMARK  230  A    between atoms: _550  and  _551
REMARK  231  A    between atoms: _553  and  _555
REMARK  232  A    between atoms: _555  and  _556
REMARK  233  A    between atoms: _555  and  _558
REMARK  234  A    between atoms: _558  and  _559
REMARK  235  A    between atoms: _564  and  _566
REMARK  236  A    between atoms: _566  and  _567
REMARK  237  A    between atoms: _566  and  _569
REMARK  238  A    between atoms: _569  and  _570
REMARK  239  A    between atoms: _573  and  _575
REMARK  240  A    between atoms: _575  and  _576
REMARK  241  A    between atoms: _575  and  _578
REMARK  242  A    between atoms: _578  and  _579
REMARK  243  A    between atoms: _585  and  _587
REMARK  244  A    between atoms: _587  and  _588
REMARK  245  A    between atoms: _587  and  _590
REMARK  246  A    between atoms: _590  and  _591
REMARK  247  A    between atoms: _591  and  _592
REMARK  248  A    between atoms: _595  and  _597
REMARK  249  A    between atoms: _597  and  _598
REMARK  250  A    between atoms: _597  and  _600
REMARK  251  A    between atoms: _600  and  _601
REMARK  252  A    between atoms: _601  and  _602
REMARK  253  A    between atoms: _602  and  _603
REMARK  254  A    between atoms: _612  and  _614
REMARK  255  A    between atoms: _614  and  _615
REMARK  256  A    between atoms: _614  and  _617
REMARK  257  A    between atoms: _617  and  _618
REMARK  258  A    between atoms: _618  and  _619
REMARK  259  A    between atoms: _619  and  _620
REMARK  260  A    between atoms: _629  and  _631
REMARK  261  A    between atoms: _631  and  _632
REMARK  262  A    between atoms: _631  and  _634
REMARK  263  A    between atoms: _634  and  _635
REMARK  264  A    between atoms: _640  and  _641
REMARK  265  A    between atoms: _643  and  _645
REMARK  266  A    between atoms: _645  and  _646
REMARK  267  A    between atoms: _645  and  _648
REMARK  268  A    between atoms: _648  and  _649
REMARK  269  A    between atoms: _652  and  _654
REMARK  270  A    between atoms: _654  and  _655
REMARK  271  A    between atoms: _654  and  _657
REMARK  272  A    between atoms: _657  and  _658
REMARK  273  A    between atoms: _658  and  _659
REMARK  274  A    between atoms: _659  and  _660
REMARK  275  A    between atoms: _660  and  _661
REMARK  276  A    between atoms: _665  and  _667
REMARK  277  A    between atoms: _667  and  _668
REMARK  278  A    between atoms: _667  and  _670
REMARK  279  A    between atoms: _670  and  _671
REMARK  280  A    between atoms: _676  and  _678
REMARK  281  A    between atoms: _678  and  _679
REMARK  282  A    between atoms: _678  and  _681
REMARK  283  A    between atoms: _681  and  _682
REMARK  284  A    between atoms: _692  and  _694
REMARK  285  A    between atoms: _694  and  _695
REMARK  286  A    between atoms: _694  and  _697
REMARK  287  A    between atoms: _697  and  _698
REMARK  288  A    between atoms: _698  and  _699
REMARK  289  A    between atoms: _702  and  _704
REMARK  290  A    between atoms: _704  and  _705
REMARK  291  A    between atoms: _704  and  _707
REMARK  292  A    between atoms: _707  and  _708
REMARK  293  A    between atoms: _711  and  _713
REMARK  294  A    between atoms: _713  and  _714
REMARK  295  A    between atoms: _713  and  _716
REMARK  296  A    between atoms: _716  and  _717
REMARK  297  A    between atoms: _722  and  _724
REMARK  298  A    between atoms: _724  and  _725
REMARK  299  A    between atoms: _724  and  _727
REMARK  300  A    between atoms: _727  and  _728
REMARK  301  A    between atoms: _734  and  _736
REMARK  302  A    between atoms: _736  and  _737
REMARK  303  A    between atoms: _736  and  _739
REMARK  304  A    between atoms: _739  and  _740
REMARK  305  A    between atoms: _742  and  _744
REMARK  306  A    between atoms: _744  and  _745
REMARK  307  A    between atoms: _747  and  _749
REMARK  308  A    between atoms: _749  and  _750
REMARK  309  A    between atoms: _749  and  _752
REMARK  310  A    between atoms: _752  and  _753
REMARK  311  A    between atoms: _758  and  _759
REMARK  312  A    between atoms: _761  and  _763
REMARK  313  A    between atoms: _763  and  _764
REMARK  314  A    between atoms: _763  and  _766
REMARK  315  A    between atoms: _766  and  _767
REMARK  316  A    between atoms: _772  and  _773
REMARK  317  A    between atoms: _775  and  _777
REMARK  318  A    between atoms: _777  and  _778
REMARK  319  A    between atoms: _777  and  _780
REMARK  320  A    between atoms: _780  and  _781
REMARK  321  A    between atoms: _785  and  ZN_876
REMARK  322  A    between atoms: _786  and  _788
REMARK  323  A    between atoms: _788  and  _789
REMARK  324  A    between atoms: _788  and  _791
REMARK  325  A    between atoms: _791  and  _792
REMARK  326  A    between atoms: _792  and  _793
REMARK  327  A    between atoms: _796  and  _798
REMARK  328  A    between atoms: _798  and  _799
REMARK  329  A    between atoms: _798  and  _801
REMARK  330  A    between atoms: _801  and  _802
REMARK  331  A    between atoms: _802  and  _803
REMARK  332  A    between atoms: _803  and  _804
REMARK  333  A    between atoms: _813  and  _815
REMARK  334  A    between atoms: _815  and  _816
REMARK  335  A    between atoms: _815  and  _818
REMARK  336  A    between atoms: _818  and  _819
REMARK  337  A    between atoms: _824  and  _825
REMARK  338  A    between atoms: _827  and  _829
REMARK  339  A    between atoms: _829  and  _830
REMARK  340  A    between atoms: _829  and  _832
REMARK  341  A    between atoms: _832  and  _833
REMARK  342  A    between atoms: _838  and  _840
REMARK  343  A    between atoms: _840  and  _841
REMARK  344  A    between atoms: _840  and  _843
REMARK  345  A    between atoms: _843  and  _844
REMARK  346  A    between atoms: _844  and  _845
REMARK  347  A    between atoms: _845  and  _846
REMARK  348  A    between atoms: _846  and  _847
REMARK  349  A    between atoms: _851  and  _853
REMARK  350  A    between atoms: _853  and  _854
REMARK  351  A    between atoms: _853  and  _856
REMARK  352  A    between atoms: _856  and  _857
REMARK  353  A    between atoms: _862  and  _863
REMARK  354  A    between atoms: _865  and  _867
REMARK  355  A    between atoms: _867  and  _868
REMARK  356  A    between atoms: _871  and  _873
REMARK  357  A    between atoms: _873  and  _874
REMARK                            x       y       z     vdW  Elec       q    Type
REMARK                         _______ _______ _______ _____ _____    ______ ____
ROOT
ATOM      1  C   SER A   2      29.075  44.357  40.757  0.00  0.00    +0.243 C 
ATOM      2  N   GLY A   3      28.432  44.990  41.743  0.00  0.00    -0.295 N 
ATOM      3  H   GLY A   3      28.449  46.030  41.768  0.00  0.00    +0.150 HD
ATOM      4  O   SER A   2      28.971  43.110  40.546  0.00  0.00    -0.273 OA
ENDROOT
BRANCH   1   5
ATOM      5  CA  SER A   2      29.989  45.253  39.883  0.00  0.00    +0.178 C 
BRANCH   5   8
ATOM      6  C   PHE A   1      32.411  44.879  39.981  0.00  0.00    +0.239 C 
ATOM      7  O   PHE A   1      32.513  45.733  40.898  0.00  0.00    -0.274 OA
ATOM      8  N   SER A   2      31.235  44.594  39.404  0.00  0.00    -0.295 N 
ATOM      9  H   SER A   2      31.193  43.911  38.620  0.00  0.00    +0.150 HD
BRANCH   6  10
ATOM     10  CA  PHE A   1      33.672  44.124  39.442  0.00  0.00    +0.149 C 
BRANCH  10  11
ATOM     11  N   PHE A   1      34.926  44.793  39.807  0.00  0.00    -0.238 NA
ATOM     12  H   PHE A   1      35.590  44.314  40.448  0.00  0.00    +0.142 HD
ENDBRANCH  10  11
BRANCH  10  13
ATOM     13  CB  PHE A   1      33.707  42.630  39.840  0.00  0.00    +0.053 C 
BRANCH  13  14
ATOM     14  CG  PHE A   1      33.817  42.382  41.323  0.00  0.00    -0.020 A 
ATOM     15  CD2 PHE A   1      32.664  42.359  42.134  0.00  0.00    -0.004 A 
ATOM     16  CE2 PHE A   1      32.749  42.140  43.538  0.00  0.00    -0.000 A 
ATOM     17  CZ  PHE A   1      34.025  41.939  44.131  0.00  0.00    -0.000 A 
ATOM     18  CE1 PHE A   1      35.193  41.961  43.319  0.00  0.00    -0.000 A 
ATOM     19  CD1 PHE A   1      35.075  42.178  41.919  0.00  0.00    -0.004 A 
ENDBRANCH  13  14
ENDBRANCH  10  13
ENDBRANCH   6  10
ENDBRANCH   5   8
BRANCH   5  20
ATOM     20  CB  SER A   2      29.217  45.937  38.743  0.00  0.00    +0.166 C 
BRANCH  20  21
ATOM     21  OG  SER A   2      29.399  45.269  37.521  0.00  0.00    -0.380 OA
ATOM     22  H   SER A   2      30.361  45.265  37.289  0.00  0.00    +0.211 HD
ENDBRANCH  20  21
ENDBRANCH   5  20
ENDBRANCH   1   5
BRANCH   2  23
ATOM     23  CA  GLY A   3      27.701  44.266  42.795  0.00  0.00    +0.176 C 
BRANCH  23  24
ATOM     24  C   GLY A   3      28.566  43.115  43.290  0.00  0.00    +0.243 C 
ATOM     25  O   GLY A   3      29.756  43.330  43.616  0.00  0.00    -0.273 OA
ATOM     26  N   TYR A   4      28.016  41.890  43.292  0.00  0.00    -0.298 N 
ATOM     27  H   TYR A   4      26.997  41.788  43.113  0.00  0.00    +0.150 HD
BRANCH  26  28
ATOM     28  CA  TYR A   4      28.834  40.679  43.545  0.00  0.00    +0.141 C 
BRANCH  28  29
ATOM     29  C   TYR A   4      28.713  39.734  42.321  0.00  0.00    +0.227 C 
ATOM     30  O   TYR A   4      27.664  39.745  41.638  0.00  0.00    -0.286 OA
ENDBRANCH  28  29
BRANCH  28  31
ATOM     31  CB  TYR A   4      28.407  39.993  44.854  0.00  0.00    +0.054 C 
BRANCH  31  32
ATOM     32  CG  TYR A   4      26.928  39.683  44.947  0.00  0.00    -0.020 A 
ATOM     33  CD2 TYR A   4      26.025  40.688  45.294  0.00  0.00    -0.001 A 
ATOM     34  CE2 TYR A   4      24.640  40.415  45.370  0.00  0.00    +0.036 A 
ATOM     35  CZ  TYR A   4      24.196  39.157  45.097  0.00  0.00    +0.134 A 
ATOM     36  CE1 TYR A   4      25.018  38.121  44.742  0.00  0.00    +0.036 A 
ATOM     37  CD1 TYR A   4      26.436  38.401  44.658  0.00  0.00    -0.001 A 
BRANCH  35  38
ATOM     38  OH  TYR A   4      22.844  38.905  45.139  0.00  0.00    -0.506 OA
ATOM     39  HH  TYR A   4      22.680  37.954  44.919  0.00  0.00    +0.292 HD
ENDBRANCH  35  38
ENDBRANCH  31  32
ENDBRANCH  28  31
ENDBRANCH  26  28
ENDBRANCH  23  24
ENDBRANCH   2  23
TORSDOF 15
REMARK  Name = ../refined-set-2016/2xei/2xei_pocket.pdb
REMARK  357 active torsions:
REMARK  status: ('A' for Active; 'I' for Inactive)
REMARK    1  A    between atoms: _1  and  _3
REMARK    2  A    between atoms: _3  and  _4
REMARK    3  A    between atoms: _7  and  _9
REMARK    4  A    between atoms: _9  and  _10
REMARK    5  A    between atoms: _9  and  _12
REMARK    6  A    between atoms: _12  and  _13
REMARK    7  A    between atoms: _19  and  _21
REMARK    8  A    between atoms: _21  and  _22
REMARK    9  A    between atoms: _24  and  _26
REMARK   10  A    between atoms: _26  and  _27
REMARK   11  A    between atoms: _26  and  _29
REMARK   12  A    between atoms: _29  and  _30
REMARK   13  A    between atoms: _30  and  _31
REMARK   14  A    between atoms: _31  and  _32
REMARK   15  A    between atoms: _32  and  _33
REMARK   16  A    between atoms: _37  and  _39
REMARK   17  A    between atoms: _39  and  _40
REMARK   18  A    between atoms: _39  and  _42
REMARK   19  A    between atoms: _45  and  _47
REMARK   20  A    between atoms: _47  and  _48
REMARK   21  A    between atoms: _47  and  _50
REMARK   22  A    between atoms: _50  and  _51
REMARK   23  A    between atoms: _57  and  _59
REMARK   24  A    between atoms: _59  and  _60
REMARK   25  A    between atoms: _59  and  _62
REMARK   26  A    between atoms: _62  and  _63
REMARK   27  A    between atoms: _63  and  _64
REMARK   28  A    between atoms: _64  and  _65
REMARK   29  A    between atoms: _74  and  _76
REMARK   30  A    between atoms: _76  and  _77
REMARK   31  A    between atoms: _79  and  _81
REMARK   32  A    between atoms: _81  and  _82
REMARK   33  A    between atoms: _81  and  _84
REMARK   34  A    between atoms: _84  and  _85
REMARK   35  A    between atoms: _90  and  _91
REMARK   36  A    between atoms: _93  and  _95
REMARK   37  A    between atoms: _95  and  _96
REMARK   38  A    between atoms: _95  and  _98
REMARK   39  A    between atoms: _98  and  _99
REMARK   40  A    between atoms: _99  and  _100
REMARK   41  A    between atoms: _105  and  _107
REMARK   42  A    between atoms: _107  and  _108
REMARK   43  A    between atoms: _107  and  _110
REMARK   44  A    between atoms: _110  and  _111
REMARK   45  A    between atoms: _111  and  _112
REMARK   46  A    between atoms: _112  and  _113
REMARK   47  A    between atoms: _122  and  _124
REMARK   48  A    between atoms: _124  and  _125
REMARK   49  A    between atoms: _127  and  _129
REMARK   50  A    between atoms: _129  and  _130
REMARK   51  A    between atoms: _129  and  _132
REMARK   52  A    between atoms: _132  and  _133
REMARK   53  A    between atoms: _138  and  _140
REMARK   54  A    between atoms: _140  and  _141
REMARK   55  A    between atoms: _140  and  _143
REMARK   56  A    between atoms: _143  and  _144
REMARK   57  A    between atoms: _147  and  _149
REMARK   58  A    between atoms: _149  and  _150
REMARK   59  A    between atoms: _149  and  _152
REMARK   60  A    between atoms: _152  and  _153
REMARK   61  A    between atoms: _156  and  _158
REMARK   62  A    between atoms: _158  and  _159
REMARK   63  A    between atoms: _158  and  _161
REMARK   64  A    between atoms: _161  and  _162
REMARK   65  A    between atoms: _167  and  _169
REMARK   66  A    between atoms: _169  and  _170
REMARK   67  A    between atoms: _169  and  _172
REMARK   68  A    between atoms: _172  and  _173
REMARK   69  A    between atoms: _176  and  _178
REMARK   70  A    between atoms: _178  and  _179
REMARK   71  A    between atoms: _178  and  _181
REMARK   72  A    between atoms: _181  and  _182
REMARK   73  A    between atoms: _187  and  _189
REMARK   74  A    between atoms: _189  and  _190
REMARK   75  A    between atoms: _192  and  _194
REMARK   76  A    between atoms: _194  and  _195
REMARK   77  A    between atoms: _194  and  _197
REMARK   78  A    between atoms: _197  and  _198
REMARK   79  A    between atoms: _202  and  ZN_877
REMARK   80  A    between atoms: _203  and  _205
REMARK   81  A    between atoms: _205  and  _206
REMARK   82  A    between atoms: _205  and  _208
REMARK   83  A    between atoms: _208  and  _209
REMARK   84  A    between atoms: _212  and  _214
REMARK   85  A    between atoms: _214  and  _215
REMARK   86  A    between atoms: _214  and  _217
REMARK   87  A    between atoms: _217  and  _218
REMARK   88  A    between atoms: _228  and  _230
REMARK   89  A    between atoms: _230  and  _231
REMARK   90  A    between atoms: _230  and  _233
REMARK   91  A    between atoms: _233  and  _234
REMARK   92  A    between atoms: _237  and  _239
REMARK   93  A    between atoms: _239  and  _240
REMARK   94  A    between atoms: _239  and  _242
REMARK   95  A    between atoms: _242  and  _243
REMARK   96  A    between atoms: _243  and  _244
REMARK   97  A    between atoms: _243  and  _245
REMARK   98  A    between atoms: _244  and  ZN_877
REMARK   99  A    between atoms: _245  and  ZN_876
REMARK  100  A    between atoms: _247  and  _248
REMARK  101  A    between atoms: _253  and  _255
REMARK  102  A    between atoms: _255  and  _256
REMARK  103  A    between atoms: _259  and  _261
REMARK  104  A    between atoms: _261  and  _262
REMARK  105  A    between atoms: _261  and  _264
REMARK  106  A    between atoms: _264  and  _265
REMARK  107  A    between atoms: _265  and  _266
REMARK  108  A    between atoms: _269  and  _271
REMARK  109  A    between atoms: _271  and  _272
REMARK  110  A    between atoms: _271  and  _274
REMARK  111  A    between atoms: _274  and  _275
REMARK  112  A    between atoms: _275  and  _276
REMARK  113  A    between atoms: _276  and  _278
REMARK  114  A    between atoms: _278  and  ZN_876
REMARK  115  A    between atoms: _279  and  _281
REMARK  116  A    between atoms: _281  and  _282
REMARK  117  A    between atoms: _281  and  _284
REMARK  118  A    between atoms: _284  and  _285
REMARK  119  A    between atoms: _291  and  _293
REMARK  120  A    between atoms: _293  and  _294
REMARK  121  A    between atoms: _296  and  _298
REMARK  122  A    between atoms: _298  and  _299
REMARK  123  A    between atoms: _298  and  _301
REMARK  124  A    between atoms: _301  and  _302
REMARK  125  A    between atoms: _305  and  _307
REMARK  126  A    between atoms: _307  and  _308
REMARK  127  A    between atoms: _307  and  _310
REMARK  128  A    between atoms: _310  and  _311
REMARK  129  A    between atoms: _314  and  _316
REMARK  130  A    between atoms: _316  and  _317
REMARK  131  A    between atoms: _316  and  _319
REMARK  132  A    between atoms: _319  and  _320
REMARK  133  A    between atoms: _325  and  _327
REMARK  134  A    between atoms: _327  and  _328
REMARK  135  A    between atoms: _327  and  _330
REMARK  136  A    between atoms: _330  and  _331
REMARK  137  A    between atoms: _331  and  _333
REMARK  138  A    between atoms: _333  and  ZN_877
REMARK  139  A    between atoms: _334  and  _336
REMARK  140  A    between atoms: _336  and  _337
REMARK  141  A    between atoms: _336  and  _339
REMARK  142  A    between atoms: _339  and  _340
REMARK  143  A    between atoms: _342  and  _344
REMARK  144  A    between atoms: _344  and  _345
REMARK  145  A    between atoms: _344  and  _347
REMARK  146  A    between atoms: _347  and  _348
REMARK  147  A    between atoms: _350  and  _352
REMARK  148  A    between atoms: _352  and  _353
REMARK  149  A    between atoms: _352  and  _355
REMARK  150  A    between atoms: _355  and  _356
REMARK  151  A    between atoms: _359  and  _361
REMARK  152  A    between atoms: _361  and  _362
REMARK  153  A    between atoms: _361  and  _364
REMARK  154  A    between atoms: _364  and  _365
REMARK  155  A    between atoms: _365  and  _366
REMARK  156  A    between atoms: _369  and  _371
REMARK  157  A    between atoms: _371  and  _372
REMARK  158  A    between atoms: _371  and  _374
REMARK  159  A    between atoms: _374  and  _375
REMARK  160  A    between atoms: _380  and  _381
REMARK  161  A    between atoms: _383  and  _385
REMARK  162  A    between atoms: _385  and  _386
REMARK  163  A    between atoms: _385  and  _388
REMARK  164  A    between atoms: _388  and  _389
REMARK  165  A    between atoms: _392  and  _394
REMARK  166  A    between atoms: _394  and  _395
REMARK  167  A    between atoms: _394  and  _397
REMARK  168  A    between atoms: _397  and  _398
REMARK  169  A    between atoms: _401  and  _403
REMARK  170  A    between atoms: _403  and  _404
REMARK  171  A    between atoms: _403  and  _406
REMARK  172  A    between atoms: _406  and  _407
REMARK  173  A    between atoms: _407  and  _408
REMARK  174  A    between atoms: _408  and  _409
REMARK  175  A    between atoms: _418  and  _420
REMARK  176  A    between atoms: _420  and  _421
REMARK  177  A    between atoms: _420  and  _423
REMARK  178  A    between atoms: _426  and  _428
REMARK  179  A    between atoms: _428  and  _429
REMARK  180  A    between atoms: _428  and  _431
REMARK  181  A    between atoms: _431  and  _432
REMARK  182  A    between atoms: _435  and  _437
REMARK  183  A    between atoms: _437  and  _438
REMARK  184  A    between atoms: _437  and  _440
REMARK  185  A    between atoms: _440  and  _441
REMARK  186  A    between atoms: _451  and  _453
REMARK  187  A    between atoms: _453  and  _454
REMARK  188  A    between atoms: _453  and  _456
REMARK  189  A    between atoms: _456  and  _457
REMARK  190  A    between atoms: _457  and  _458
REMARK  191  A    between atoms: _458  and  _459
REMARK  192  A    between atoms: _459  and  _460
REMARK  193  A    between atoms: _464  and  _466
REMARK  194  A    between atoms: _466  and  _467
REMARK  195  A    between atoms: _466  and  _469
REMARK  196  A    between atoms: _469  and  _470
REMARK  197  A    between atoms: _473  and  _474
REMARK  198  A    between atoms: _479  and  _481
REMARK  199  A    between atoms: _481  and  _482
REMARK  200  A    between atoms: _481  and  _484
REMARK  201  A    between atoms: _484  and  _485
REMARK  202  A    between atoms: _485  and  _486
REMARK  203  A    between atoms: _486  and  _487
REMARK  204  A    between atoms: _496  and  _498
REMARK  205  A    between atoms: _498  and  _499
REMARK  206  A    between atoms: _498  and  _501
REMARK  207  A    between atoms: _501  and  _502
REMARK  208  A    between atoms: _505  and  _507
REMARK  209  A    between atoms: _507  and  _508
REMARK  210  A    between atoms: _507  and  _510
REMARK  211  A    between atoms: _510  and  _511
REMARK  212  A    between atoms: _513  and  _515
REMARK  213  A    between atoms: _515  and  _516
REMARK  214  A    between atoms: _515  and  _518
REMARK  215  A    between atoms: _518  and  _519
REMARK  216  A    between atoms: _519  and  _520
REMARK  217  A    between atoms: _520  and  _521
REMARK  218  A    between atoms: _521  and  _522
REMARK  219  A    between atoms: _526  and  _528
REMARK  220  A    between atoms: _528  and  _529
REMARK  221  A    between atoms: _528  and  _531
REMARK  222  A    between atoms: _531  and  _532
REMARK  223  A    between atoms: _535  and  _537
REMARK  224  A    between atoms: _537  and  _538
REMARK  225  A    between atoms: _540  and  _542
REMARK  226  A    between atoms: _542  and  _543
REMARK  227  A    between atoms: _542  and  _545
REMARK  228  A    between atoms: _545  and  _546
REMARK  229  A    between atoms: _548  and  _550
REMARK  230  A    between atoms: _550  and  _551
REMARK  231  A    between atoms: _553  and  _555
REMARK  232  A    between atoms: _555  and  _556
REMARK  233  A    between atoms: _555  and  _558
REMARK  234  A    between atoms: _558  and  _559
REMARK  235  A    between atoms: _564  and  _566
REMARK  236  A    between atoms: _566  and  _567
REMARK  237  A    between atoms: _566  and  _569
REMARK  238  A    between atoms: _569  and  _570
REMARK  239  A    between atoms: _573  and  _575
REMARK  240  A    between atoms: _575  and  _576
REMARK  241  A    between atoms: _575  and  _578
REMARK  242  A    between atoms: _578  and  _579
REMARK  243  A    between atoms: _585  and  _587
REMARK  244  A    between atoms: _587  and  _588
REMARK  245  A    between atoms: _587  and  _590
REMARK  246  A    between atoms: _590  and  _591
REMARK  247  A    between atoms: _591  and  _592
REMARK  248  A    between atoms: _595  and  _597
REMARK  249  A    between atoms: _597  and  _598
REMARK  250  A    between atoms: _597  and  _600
REMARK  251  A    between atoms: _600  and  _601
REMARK  252  A    between atoms: _601  and  _602
REMARK  253  A    between atoms: _602  and  _603
REMARK  254  A    between atoms: _612  and  _614
REMARK  255  A    between atoms: _614  and  _615
REMARK  256  A    between atoms: _614  and  _617
REMARK  257  A    between atoms: _617  and  _618
REMARK  258  A    between atoms: _618  and  _619
REMARK  259  A    between atoms: _619  and  _620
REMARK  260  A    between atoms: _629  and  _631
REMARK  261  A    between atoms: _631  and  _632
REMARK  262  A    between atoms: _631  and  _634
REMARK  263  A    between atoms: _634  and  _635
REMARK  264  A    between atoms: _640  and  _641
REMARK  265  A    between atoms: _643  and  _645
REMARK  266  A    between atoms: _645  and  _646
REMARK  267  A    between atoms: _645  and  _648
REMARK  268  A    between atoms: _648  and  _649
REMARK  269  A    between atoms: _652  and  _654
REMARK  270  A    between atoms: _654  and  _655
REMARK  271  A    between atoms: _654  and  _657
REMARK  272  A    between atoms: _657  and  _658
REMARK  273  A    between atoms: _658  and  _659
REMARK  274  A    between atoms: _659  and  _660
REMARK  275  A    between atoms: _660  and  _661
REMARK  276  A    between atoms: _665  and  _667
REMARK  277  A    between atoms: _667  and  _668
REMARK  278  A    between atoms: _667  and  _670
REMARK  279  A    between atoms: _670  and  _671
REMARK  280  A    between atoms: _676  and  _678
REMARK  281  A    between atoms: _678  and  _679
REMARK  282  A    between atoms: _678  and  _681
REMARK  283  A    between atoms: _681  and  _682
REMARK  284  A    between atoms: _692  and  _694
REMARK  285  A    between atoms: _694  and  _695
REMARK  286  A    between atoms: _694  and  _697
REMARK  287  A    between atoms: _697  and  _698
REMARK  288  A    between atoms: _698  and  _699
REMARK  289  A    between atoms: _702  and  _704
REMARK  290  A    between atoms: _704  and  _705
REMARK  291  A    between atoms: _704  and  _707
REMARK  292  A    between atoms: _707  and  _708
REMARK  293  A    between atoms: _711  and  _713
REMARK  294  A    between atoms: _713  and  _714
REMARK  295  A    between atoms: _713  and  _716
REMARK  296  A    between atoms: _716  and  _717
REMARK  297  A    between atoms: _722  and  _724
REMARK  298  A    between atoms: _724  and  _725
REMARK  299  A    between atoms: _724  and  _727
REMARK  300  A    between atoms: _727  and  _728
REMARK  301  A    between atoms: _734  and  _736
REMARK  302  A    between atoms: _736  and  _737
REMARK  303  A    between atoms: _736  and  _739
REMARK  304  A    between atoms: _739  and  _740
REMARK  305  A    between atoms: _742  and  _744
REMARK  306  A    between atoms: _744  and  _745
REMARK  307  A    between atoms: _747  and  _749
REMARK  308  A    between atoms: _749  and  _750
REMARK  309  A    between atoms: _749  and  _752
REMARK  310  A    between atoms: _752  and  _753
REMARK  311  A    between atoms: _758  and  _759
REMARK  312  A    between atoms: _761  and  _763
REMARK  313  A    between atoms: _763  and  _764
REMARK  314  A    between atoms: _763  and  _766
REMARK  315  A    between atoms: _766  and  _767
REMARK  316  A    between atoms: _772  and  _773
REMARK  317  A    between atoms: _775  and  _777
REMARK  318  A    between atoms: _777  and  _778
REMARK  319  A    between atoms: _777  and  _780
REMARK  320  A    between atoms: _780  and  _781
REMARK  321  A    between atoms: _785  and  ZN_876
REMARK  322  A    between atoms: _786  and  _788
REMARK  323  A    between atoms: _788  and  _789
REMARK  324  A    between atoms: _788  and  _791
REMARK  325  A    between atoms: _791  and  _792
REMARK  326  A    between atoms: _792  and  _793
REMARK  327  A    between atoms: _796  and  _798
REMARK  328  A    between atoms: _798  and  _799
REMARK  329  A    between atoms: _798  and  _801
REMARK  330  A    between atoms: _801  and  _802
REMARK  331  A    between atoms: _802  and  _803
REMARK  332  A    between atoms: _803  and  _804
REMARK  333  A    between atoms: _813  and  _815
REMARK  334  A    between atoms: _815  and  _816
REMARK  335  A    between atoms: _815  and  _818
REMARK  336  A    between atoms: _818  and  _819
REMARK  337  A    between atoms: _824  and  _825
REMARK  338  A    between atoms: _827  and  _829
REMARK  339  A    between atoms: _829  and  _830
REMARK  340  A    between atoms: _829  and  _832
REMARK  341  A    between atoms: _832  and  _833
REMARK  342  A    between atoms: _838  and  _840
REMARK  343  A    between atoms: _840  and  _841
REMARK  344  A    between atoms: _840  and  _843
REMARK  345  A    between atoms: _843  and  _844
REMARK  346  A    between atoms: _844  and  _845
REMARK  347  A    between atoms: _845  and  _846
REMARK  348  A    between atoms: _846  and  _847
REMARK  349  A    between atoms: _851  and  _853
REMARK  350  A    between atoms: _853  and  _854
REMARK  351  A    between atoms: _853  and  _856
REMARK  352  A    between atoms: _856  and  _857
REMARK  353  A    between atoms: _862  and  _863
REMARK  354  A    between atoms: _865  and  _867
REMARK  355  A    between atoms: _867  and  _868
REMARK  356  A    between atoms: _871  and  _873
REMARK  357  A    between atoms: _873  and  _874
REMARK                            x       y       z     vdW  Elec       q    Type
REMARK                         _______ _______ _______ _____ _____    ______ ____
ROOT
ATOM      1  CA  GLU A   1      23.526  32.293  44.784  0.00  0.00    +0.134 C 
ENDROOT
BRANCH   1   2
ATOM      2  N   GLU A   1      23.702  31.586  43.525  0.00  0.00    -0.239 NA
ATOM      3  H   GLU A   1      23.095  31.819  42.714  0.00  0.00    +0.142 HD
ENDBRANCH   1   2
BRANCH   1   4
ATOM      4  C   GLU A   1      22.817  31.379  45.773  0.00  0.00    +0.224 C 
ATOM      5  O   GLU A   1      21.582  31.337  45.803  0.00  0.00    -0.287 OA
ENDBRANCH   1   4
BRANCH   1   6
ATOM      6  CB  GLU A   1      22.585  33.482  44.499  0.00  0.00    +0.037 C 
BRANCH   6   7
ATOM      7  CG  GLU A   1      23.221  34.721  44.599  0.00  0.00    +0.116 C 
BRANCH   7   8
ATOM      8  CD  GLU A   1      22.148  35.803  44.785  0.00  0.00    +0.365 C 
ATOM      9  OE2 GLU A   1      21.522  35.759  45.847  0.00  0.00    -0.246 OA
ATOM     10  OE1 GLU A   1      21.884  36.598  43.858  0.00  0.00    -0.246 OA
ENDBRANCH   7   8
ENDBRANCH   6   7
ENDBRANCH   1   6
TORSDOF 5
REMARK  Name = ../refined-set-2016/2xei/2xei_pocket.pdb
REMARK  357 active torsions:
REMARK  status: ('A' for Active; 'I' for Inactive)
REMARK    1  A    between atoms: _1  and  _3
REMARK    2  A    between atoms: _3  and  _4
REMARK    3  A    between atoms: _7  and  _9
REMARK    4  A    between atoms: _9  and  _10
REMARK    5  A    between atoms: _9  and  _12
REMARK    6  A    between atoms: _12  and  _13
REMARK    7  A    between atoms: _19  and  _21
REMARK    8  A    between atoms: _21  and  _22
REMARK    9  A    between atoms: _24  and  _26
REMARK   10  A    between atoms: _26  and  _27
REMARK   11  A    between atoms: _26  and  _29
REMARK   12  A    between atoms: _29  and  _30
REMARK   13  A    between atoms: _30  and  _31
REMARK   14  A    between atoms: _31  and  _32
REMARK   15  A    between atoms: _32  and  _33
REMARK   16  A    between atoms: _37  and  _39
REMARK   17  A    between atoms: _39  and  _40
REMARK   18  A    between atoms: _39  and  _42
REMARK   19  A    between atoms: _45  and  _47
REMARK   20  A    between atoms: _47  and  _48
REMARK   21  A    between atoms: _47  and  _50
REMARK   22  A    between atoms: _50  and  _51
REMARK   23  A    between atoms: _57  and  _59
REMARK   24  A    between atoms: _59  and  _60
REMARK   25  A    between atoms: _59  and  _62
REMARK   26  A    between atoms: _62  and  _63
REMARK   27  A    between atoms: _63  and  _64
REMARK   28  A    between atoms: _64  and  _65
REMARK   29  A    between atoms: _74  and  _76
REMARK   30  A    between atoms: _76  and  _77
REMARK   31  A    between atoms: _79  and  _81
REMARK   32  A    between atoms: _81  and  _82
REMARK   33  A    between atoms: _81  and  _84
REMARK   34  A    between atoms: _84  and  _85
REMARK   35  A    between atoms: _90  and  _91
REMARK   36  A    between atoms: _93  and  _95
REMARK   37  A    between atoms: _95  and  _96
REMARK   38  A    between atoms: _95  and  _98
REMARK   39  A    between atoms: _98  and  _99
REMARK   40  A    between atoms: _99  and  _100
REMARK   41  A    between atoms: _105  and  _107
REMARK   42  A    between atoms: _107  and  _108
REMARK   43  A    between atoms: _107  and  _110
REMARK   44  A    between atoms: _110  and  _111
REMARK   45  A    between atoms: _111  and  _112
REMARK   46  A    between atoms: _112  and  _113
REMARK   47  A    between atoms: _122  and  _124
REMARK   48  A    between atoms: _124  and  _125
REMARK   49  A    between atoms: _127  and  _129
REMARK   50  A    between atoms: _129  and  _130
REMARK   51  A    between atoms: _129  and  _132
REMARK   52  A    between atoms: _132  and  _133
REMARK   53  A    between atoms: _138  and  _140
REMARK   54  A    between atoms: _140  and  _141
REMARK   55  A    between atoms: _140  and  _143
REMARK   56  A    between atoms: _143  and  _144
REMARK   57  A    between atoms: _147  and  _149
REMARK   58  A    between atoms: _149  and  _150
REMARK   59  A    between atoms: _149  and  _152
REMARK   60  A    between atoms: _152  and  _153
REMARK   61  A    between atoms: _156  and  _158
REMARK   62  A    between atoms: _158  and  _159
REMARK   63  A    between atoms: _158  and  _161
REMARK   64  A    between atoms: _161  and  _162
REMARK   65  A    between atoms: _167  and  _169
REMARK   66  A    between atoms: _169  and  _170
REMARK   67  A    between atoms: _169  and  _172
REMARK   68  A    between atoms: _172  and  _173
REMARK   69  A    between atoms: _176  and  _178
REMARK   70  A    between atoms: _178  and  _179
REMARK   71  A    between atoms: _178  and  _181
REMARK   72  A    between atoms: _181  and  _182
REMARK   73  A    between atoms: _187  and  _189
REMARK   74  A    between atoms: _189  and  _190
REMARK   75  A    between atoms: _192  and  _194
REMARK   76  A    between atoms: _194  and  _195
REMARK   77  A    between atoms: _194  and  _197
REMARK   78  A    between atoms: _197  and  _198
REMARK   79  A    between atoms: _202  and  ZN_877
REMARK   80  A    between atoms: _203  and  _205
REMARK   81  A    between atoms: _205  and  _206
REMARK   82  A    between atoms: _205  and  _208
REMARK   83  A    between atoms: _208  and  _209
REMARK   84  A    between atoms: _212  and  _214
REMARK   85  A    between atoms: _214  and  _215
REMARK   86  A    between atoms: _214  and  _217
REMARK   87  A    between atoms: _217  and  _218
REMARK   88  A    between atoms: _228  and  _230
REMARK   89  A    between atoms: _230  and  _231
REMARK   90  A    between atoms: _230  and  _233
REMARK   91  A    between atoms: _233  and  _234
REMARK   92  A    between atoms: _237  and  _239
REMARK   93  A    between atoms: _239  and  _240
REMARK   94  A    between atoms: _239  and  _242
REMARK   95  A    between atoms: _242  and  _243
REMARK   96  A    between atoms: _243  and  _244
REMARK   97  A    between atoms: _243  and  _245
REMARK   98  A    between atoms: _244  and  ZN_877
REMARK   99  A    between atoms: _245  and  ZN_876
REMARK  100  A    between atoms: _247  and  _248
REMARK  101  A    between atoms: _253  and  _255
REMARK  102  A    between atoms: _255  and  _256
REMARK  103  A    between atoms: _259  and  _261
REMARK  104  A    between atoms: _261  and  _262
REMARK  105  A    between atoms: _261  and  _264
REMARK  106  A    between atoms: _264  and  _265
REMARK  107  A    between atoms: _265  and  _266
REMARK  108  A    between atoms: _269  and  _271
REMARK  109  A    between atoms: _271  and  _272
REMARK  110  A    between atoms: _271  and  _274
REMARK  111  A    between atoms: _274  and  _275
REMARK  112  A    between atoms: _275  and  _276
REMARK  113  A    between atoms: _276  and  _278
REMARK  114  A    between atoms: _278  and  ZN_876
REMARK  115  A    between atoms: _279  and  _281
REMARK  116  A    between atoms: _281  and  _282
REMARK  117  A    between atoms: _281  and  _284
REMARK  118  A    between atoms: _284  and  _285
REMARK  119  A    between atoms: _291  and  _293
REMARK  120  A    between atoms: _293  and  _294
REMARK  121  A    between atoms: _296  and  _298
REMARK  122  A    between atoms: _298  and  _299
REMARK  123  A    between atoms: _298  and  _301
REMARK  124  A    between atoms: _301  and  _302
REMARK  125  A    between atoms: _305  and  _307
REMARK  126  A    between atoms: _307  and  _308
REMARK  127  A    between atoms: _307  and  _310
REMARK  128  A    between atoms: _310  and  _311
REMARK  129  A    between atoms: _314  and  _316
REMARK  130  A    between atoms: _316  and  _317
REMARK  131  A    between atoms: _316  and  _319
REMARK  132  A    between atoms: _319  and  _320
REMARK  133  A    between atoms: _325  and  _327
REMARK  134  A    between atoms: _327  and  _328
REMARK  135  A    between atoms: _327  and  _330
REMARK  136  A    between atoms: _330  and  _331
REMARK  137  A    between atoms: _331  and  _333
REMARK  138  A    between atoms: _333  and  ZN_877
REMARK  139  A    between atoms: _334  and  _336
REMARK  140  A    between atoms: _336  and  _337
REMARK  141  A    between atoms: _336  and  _339
REMARK  142  A    between atoms: _339  and  _340
REMARK  143  A    between atoms: _342  and  _344
REMARK  144  A    between atoms: _344  and  _345
REMARK  145  A    between atoms: _344  and  _347
REMARK  146  A    between atoms: _347  and  _348
REMARK  147  A    between atoms: _350  and  _352
REMARK  148  A    between atoms: _352  and  _353
REMARK  149  A    between atoms: _352  and  _355
REMARK  150  A    between atoms: _355  and  _356
REMARK  151  A    between atoms: _359  and  _361
REMARK  152  A    between atoms: _361  and  _362
REMARK  153  A    between atoms: _361  and  _364
REMARK  154  A    between atoms: _364  and  _365
REMARK  155  A    between atoms: _365  and  _366
REMARK  156  A    between atoms: _369  and  _371
REMARK  157  A    between atoms: _371  and  _372
REMARK  158  A    between atoms: _371  and  _374
REMARK  159  A    between atoms: _374  and  _375
REMARK  160  A    between atoms: _380  and  _381
REMARK  161  A    between atoms: _383  and  _385
REMARK  162  A    between atoms: _385  and  _386
REMARK  163  A    between atoms: _385  and  _388
REMARK  164  A    between atoms: _388  and  _389
REMARK  165  A    between atoms: _392  and  _394
REMARK  166  A    between atoms: _394  and  _395
REMARK  167  A    between atoms: _394  and  _397
REMARK  168  A    between atoms: _397  and  _398
REMARK  169  A    between atoms: _401  and  _403
REMARK  170  A    between atoms: _403  and  _404
REMARK  171  A    between atoms: _403  and  _406
REMARK  172  A    between atoms: _406  and  _407
REMARK  173  A    between atoms: _407  and  _408
REMARK  174  A    between atoms: _408  and  _409
REMARK  175  A    between atoms: _418  and  _420
REMARK  176  A    between atoms: _420  and  _421
REMARK  177  A    between atoms: _420  and  _423
REMARK  178  A    between atoms: _426  and  _428
REMARK  179  A    between atoms: _428  and  _429
REMARK  180  A    between atoms: _428  and  _431
REMARK  181  A    between atoms: _431  and  _432
REMARK  182  A    between atoms: _435  and  _437
REMARK  183  A    between atoms: _437  and  _438
REMARK  184  A    between atoms: _437  and  _440
REMARK  185  A    between atoms: _440  and  _441
REMARK  186  A    between atoms: _451  and  _453
REMARK  187  A    between atoms: _453  and  _454
REMARK  188  A    between atoms: _453  and  _456
REMARK  189  A    between atoms: _456  and  _457
REMARK  190  A    between atoms: _457  and  _458
REMARK  191  A    between atoms: _458  and  _459
REMARK  192  A    between atoms: _459  and  _460
REMARK  193  A    between atoms: _464  and  _466
REMARK  194  A    between atoms: _466  and  _467
REMARK  195  A    between atoms: _466  and  _469
REMARK  196  A    between atoms: _469  and  _470
REMARK  197  A    between atoms: _473  and  _474
REMARK  198  A    between atoms: _479  and  _481
REMARK  199  A    between atoms: _481  and  _482
REMARK  200  A    between atoms: _481  and  _484
REMARK  201  A    between atoms: _484  and  _485
REMARK  202  A    between atoms: _485  and  _486
REMARK  203  A    between atoms: _486  and  _487
REMARK  204  A    between atoms: _496  and  _498
REMARK  205  A    between atoms: _498  and  _499
REMARK  206  A    between atoms: _498  and  _501
REMARK  207  A    between atoms: _501  and  _502
REMARK  208  A    between atoms: _505  and  _507
REMARK  209  A    between atoms: _507  and  _508
REMARK  210  A    between atoms: _507  and  _510
REMARK  211  A    between atoms: _510  and  _511
REMARK  212  A    between atoms: _513  and  _515
REMARK  213  A    between atoms: _515  and  _516
REMARK  214  A    between atoms: _515  and  _518
REMARK  215  A    between atoms: _518  and  _519
REMARK  216  A    between atoms: _519  and  _520
REMARK  217  A    between atoms: _520  and  _521
REMARK  218  A    between atoms: _521  and  _522
REMARK  219  A    between atoms: _526  and  _528
REMARK  220  A    between atoms: _528  and  _529
REMARK  221  A    between atoms: _528  and  _531
REMARK  222  A    between atoms: _531  and  _532
REMARK  223  A    between atoms: _535  and  _537
REMARK  224  A    between atoms: _537  and  _538
REMARK  225  A    between atoms: _540  and  _542
REMARK  226  A    between atoms: _542  and  _543
REMARK  227  A    between atoms: _542  and  _545
REMARK  228  A    between atoms: _545  and  _546
REMARK  229  A    between atoms: _548  and  _550
REMARK  230  A    between atoms: _550  and  _551
REMARK  231  A    between atoms: _553  and  _555
REMARK  232  A    between atoms: _555  and  _556
REMARK  233  A    between atoms: _555  and  _558
REMARK  234  A    between atoms: _558  and  _559
REMARK  235  A    between atoms: _564  and  _566
REMARK  236  A    between atoms: _566  and  _567
REMARK  237  A    between atoms: _566  and  _569
REMARK  238  A    between atoms: _569  and  _570
REMARK  239  A    between atoms: _573  and  _575
REMARK  240  A    between atoms: _575  and  _576
REMARK  241  A    between atoms: _575  and  _578
REMARK  242  A    between atoms: _578  and  _579
REMARK  243  A    between atoms: _585  and  _587
REMARK  244  A    between atoms: _587  and  _588
REMARK  245  A    between atoms: _587  and  _590
REMARK  246  A    between atoms: _590  and  _591
REMARK  247  A    between atoms: _591  and  _592
REMARK  248  A    between atoms: _595  and  _597
REMARK  249  A    between atoms: _597  and  _598
REMARK  250  A    between atoms: _597  and  _600
REMARK  251  A    between atoms: _600  and  _601
REMARK  252  A    between atoms: _601  and  _602
REMARK  253  A    between atoms: _602  and  _603
REMARK  254  A    between atoms: _612  and  _614
REMARK  255  A    between atoms: _614  and  _615
REMARK  256  A    between atoms: _614  and  _617
REMARK  257  A    between atoms: _617  and  _618
REMARK  258  A    between atoms: _618  and  _619
REMARK  259  A    between atoms: _619  and  _620
REMARK  260  A    between atoms: _629  and  _631
REMARK  261  A    between atoms: _631  and  _632
REMARK  262  A    between atoms: _631  and  _634
REMARK  263  A    between atoms: _634  and  _635
REMARK  264  A    between atoms: _640  and  _641
REMARK  265  A    between atoms: _643  and  _645
REMARK  266  A    between atoms: _645  and  _646
REMARK  267  A    between atoms: _645  and  _648
REMARK  268  A    between atoms: _648  and  _649
REMARK  269  A    between atoms: _652  and  _654
REMARK  270  A    between atoms: _654  and  _655
REMARK  271  A    between atoms: _654  and  _657
REMARK  272  A    between atoms: _657  and  _658
REMARK  273  A    between atoms: _658  and  _659
REMARK  274  A    between atoms: _659  and  _660
REMARK  275  A    between atoms: _660  and  _661
REMARK  276  A    between atoms: _665  and  _667
REMARK  277  A    between atoms: _667  and  _668
REMARK  278  A    between atoms: _667  and  _670
REMARK  279  A    between atoms: _670  and  _671
REMARK  280  A    between atoms: _676  and  _678
REMARK  281  A    between atoms: _678  and  _679
REMARK  282  A    between atoms: _678  and  _681
REMARK  283  A    between atoms: _681  and  _682
REMARK  284  A    between atoms: _692  and  _694
REMARK  285  A    between atoms: _694  and  _695
REMARK  286  A    between atoms: _694  and  _697
REMARK  287  A    between atoms: _697  and  _698
REMARK  288  A    between atoms: _698  and  _699
REMARK  289  A    between atoms: _702  and  _704
REMARK  290  A    between atoms: _704  and  _705
REMARK  291  A    between atoms: _704  and  _707
REMARK  292  A    between atoms: _707  and  _708
REMARK  293  A    between atoms: _711  and  _713
REMARK  294  A    between atoms: _713  and  _714
REMARK  295  A    between atoms: _713  and  _716
REMARK  296  A    between atoms: _716  and  _717
REMARK  297  A    between atoms: _722  and  _724
REMARK  298  A    between atoms: _724  and  _725
REMARK  299  A    between atoms: _724  and  _727
REMARK  300  A    between atoms: _727  and  _728
REMARK  301  A    between atoms: _734  and  _736
REMARK  302  A    between atoms: _736  and  _737
REMARK  303  A    between atoms: _736  and  _739
REMARK  304  A    between atoms: _739  and  _740
REMARK  305  A    between atoms: _742  and  _744
REMARK  306  A    between atoms: _744  and  _745
REMARK  307  A    between atoms: _747  and  _749
REMARK  308  A    between atoms: _749  and  _750
REMARK  309  A    between atoms: _749  and  _752
REMARK  310  A    between atoms: _752  and  _753
REMARK  311  A    between atoms: _758  and  _759
REMARK  312  A    between atoms: _761  and  _763
REMARK  313  A    between atoms: _763  and  _764
REMARK  314  A    between atoms: _763  and  _766
REMARK  315  A    between atoms: _766  and  _767
REMARK  316  A    between atoms: _772  and  _773
REMARK  317  A    between atoms: _775  and  _777
REMARK  318  A    between atoms: _777  and  _778
REMARK  319  A    between atoms: _777  and  _780
REMARK  320  A    between atoms: _780  and  _781
REMARK  321  A    between atoms: _785  and  ZN_876
REMARK  322  A    between atoms: _786  and  _788
REMARK  323  A    between atoms: _788  and  _789
REMARK  324  A    between atoms: _788  and  _791
REMARK  325  A    between atoms: _791  and  _792
REMARK  326  A    between atoms: _792  and  _793
REMARK  327  A    between atoms: _796  and  _798
REMARK  328  A    between atoms: _798  and  _799
REMARK  329  A    between atoms: _798  and  _801
REMARK  330  A    between atoms: _801  and  _802
REMARK  331  A    between atoms: _802  and  _803
REMARK  332  A    between atoms: _803  and  _804
REMARK  333  A    between atoms: _813  and  _815
REMARK  334  A    between atoms: _815  and  _816
REMARK  335  A    between atoms: _815  and  _818
REMARK  336  A    between atoms: _818  and  _819
REMARK  337  A    between atoms: _824  and  _825
REMARK  338  A    between atoms: _827  and  _829
REMARK  339  A    between atoms: _829  and  _830
REMARK  340  A    between atoms: _829  and  _832
REMARK  341  A    between atoms: _832  and  _833
REMARK  342  A    between atoms: _838  and  _840
REMARK  343  A    between atoms: _840  and  _841
REMARK  344  A    between atoms: _840  and  _843
REMARK  345  A    between atoms: _843  and  _844
REMARK  346  A    between atoms: _844  and  _845
REMARK  347  A    between atoms: _845  and  _846
REMARK  348  A    between atoms: _846  and  _847
REMARK  349  A    between atoms: _851  and  _853
REMARK  350  A    between atoms: _853  and  _854
REMARK  351  A    between atoms: _853  and  _856
REMARK  352  A    between atoms: _856  and  _857
REMARK  353  A    between atoms: _862  and  _863
REMARK  354  A    between atoms: _865  and  _867
REMARK  355  A    between atoms: _867  and  _868
REMARK  356  A    between atoms: _871  and  _873
REMARK  357  A    between atoms: _873  and  _874
REMARK                            x       y       z     vdW  Elec       q    Type
REMARK                         _______ _______ _______ _____ _____    ______ ____
ROOT
ATOM      1  NE  ARG A   1      19.874  45.498  56.574  0.00  0.00    -0.265 N 
ATOM      2  HE  ARG A   1      20.373  46.379  56.336  0.00  0.00    +0.259 HD
ATOM      3  CZ  ARG A   1      19.905  44.513  55.684  0.00  0.00    +0.342 C 
ATOM      4  NH2 ARG A   1      19.267  43.370  55.944  0.00  0.00    -0.292 N 
ATOM      5 HH21 ARG A   1      18.750  43.255  56.839  0.00  0.00    +0.255 HD
ATOM      6 HH22 ARG A   1      19.287  42.594  55.252  0.00  0.00    +0.255 HD
ATOM      7  NH1 ARG A   1      20.514  44.695  54.511  0.00  0.00    -0.292 N 
ATOM      8 HH11 ARG A   1      20.964  45.607  54.295  0.00  0.00    +0.255 HD
ATOM      9 HH12 ARG A   1      20.539  43.924  53.813  0.00  0.00    +0.255 HD
ENDROOT
BRANCH   1  10
ATOM     10  CD  ARG A   1      19.187  45.435  57.870  0.00  0.00    +0.174 C 
BRANCH  10  11
ATOM     11  CG  ARG A   1      19.491  46.688  58.716  0.00  0.00    +0.045 C 
BRANCH  11  12
ATOM     12  CB  ARG A   1      18.781  46.610  60.054  0.00  0.00    +0.029 C 
BRANCH  12  13
ATOM     13  CA  ARG A   1      19.196  47.738  60.970  0.00  0.00    +0.133 C 
BRANCH  13  14
ATOM     14  N   ARG A   1      20.597  47.508  61.436  0.00  0.00    -0.239 NA
ATOM     15  H   ARG A   1      21.117  46.652  61.156  0.00  0.00    +0.142 HD
ENDBRANCH  13  14
BRANCH  13  16
ATOM     16  C   ARG A   1      18.249  47.759  62.160  0.00  0.00    +0.224 C 
ATOM     17  O   ARG A   1      17.333  48.602  62.272  0.00  0.00    -0.287 OA
ENDBRANCH  13  16
ENDBRANCH  12  13
ENDBRANCH  11  12
ENDBRANCH  10  11
ENDBRANCH   1  10
TORSDOF 6
REMARK  Name = ../refined-set-2016/2xei/2xei_pocket.pdb
REMARK  357 active torsions:
REMARK  status: ('A' for Active; 'I' for Inactive)
REMARK    1  A    between atoms: _1  and  _3
REMARK    2  A    between atoms: _3  and  _4
REMARK    3  A    between atoms: _7  and  _9
REMARK    4  A    between atoms: _9  and  _10
REMARK    5  A    between atoms: _9  and  _12
REMARK    6  A    between atoms: _12  and  _13
REMARK    7  A    between atoms: _19  and  _21
REMARK    8  A    between atoms: _21  and  _22
REMARK    9  A    between atoms: _24  and  _26
REMARK   10  A    between atoms: _26  and  _27
REMARK   11  A    between atoms: _26  and  _29
REMARK   12  A    between atoms: _29  and  _30
REMARK   13  A    between atoms: _30  and  _31
REMARK   14  A    between atoms: _31  and  _32
REMARK   15  A    between atoms: _32  and  _33
REMARK   16  A    between atoms: _37  and  _39
REMARK   17  A    between atoms: _39  and  _40
REMARK   18  A    between atoms: _39  and  _42
REMARK   19  A    between atoms: _45  and  _47
REMARK   20  A    between atoms: _47  and  _48
REMARK   21  A    between atoms: _47  and  _50
REMARK   22  A    between atoms: _50  and  _51
REMARK   23  A    between atoms: _57  and  _59
REMARK   24  A    between atoms: _59  and  _60
REMARK   25  A    between atoms: _59  and  _62
REMARK   26  A    between atoms: _62  and  _63
REMARK   27  A    between atoms: _63  and  _64
REMARK   28  A    between atoms: _64  and  _65
REMARK   29  A    between atoms: _74  and  _76
REMARK   30  A    between atoms: _76  and  _77
REMARK   31  A    between atoms: _79  and  _81
REMARK   32  A    between atoms: _81  and  _82
REMARK   33  A    between atoms: _81  and  _84
REMARK   34  A    between atoms: _84  and  _85
REMARK   35  A    between atoms: _90  and  _91
REMARK   36  A    between atoms: _93  and  _95
REMARK   37  A    between atoms: _95  and  _96
REMARK   38  A    between atoms: _95  and  _98
REMARK   39  A    between atoms: _98  and  _99
REMARK   40  A    between atoms: _99  and  _100
REMARK   41  A    between atoms: _105  and  _107
REMARK   42  A    between atoms: _107  and  _108
REMARK   43  A    between atoms: _107  and  _110
REMARK   44  A    between atoms: _110  and  _111
REMARK   45  A    between atoms: _111  and  _112
REMARK   46  A    between atoms: _112  and  _113
REMARK   47  A    between atoms: _122  and  _124
REMARK   48  A    between atoms: _124  and  _125
REMARK   49  A    between atoms: _127  and  _129
REMARK   50  A    between atoms: _129  and  _130
REMARK   51  A    between atoms: _129  and  _132
REMARK   52  A    between atoms: _132  and  _133
REMARK   53  A    between atoms: _138  and  _140
REMARK   54  A    between atoms: _140  and  _141
REMARK   55  A    between atoms: _140  and  _143
REMARK   56  A    between atoms: _143  and  _144
REMARK   57  A    between atoms: _147  and  _149
REMARK   58  A    between atoms: _149  and  _150
REMARK   59  A    between atoms: _149  and  _152
REMARK   60  A    between atoms: _152  and  _153
REMARK   61  A    between atoms: _156  and  _158
REMARK   62  A    between atoms: _158  and  _159
REMARK   63  A    between atoms: _158  and  _161
REMARK   64  A    between atoms: _161  and  _162
REMARK   65  A    between atoms: _167  and  _169
REMARK   66  A    between atoms: _169  and  _170
REMARK   67  A    between atoms: _169  and  _172
REMARK   68  A    between atoms: _172  and  _173
REMARK   69  A    between atoms: _176  and  _178
REMARK   70  A    between atoms: _178  and  _179
REMARK   71  A    between atoms: _178  and  _181
REMARK   72  A    between atoms: _181  and  _182
REMARK   73  A    between atoms: _187  and  _189
REMARK   74  A    between atoms: _189  and  _190
REMARK   75  A    between atoms: _192  and  _194
REMARK   76  A    between atoms: _194  and  _195
REMARK   77  A    between atoms: _194  and  _197
REMARK   78  A    between atoms: _197  and  _198
REMARK   79  A    between atoms: _202  and  ZN_877
REMARK   80  A    between atoms: _203  and  _205
REMARK   81  A    between atoms: _205  and  _206
REMARK   82  A    between atoms: _205  and  _208
REMARK   83  A    between atoms: _208  and  _209
REMARK   84  A    between atoms: _212  and  _214
REMARK   85  A    between atoms: _214  and  _215
REMARK   86  A    between atoms: _214  and  _217
REMARK   87  A    between atoms: _217  and  _218
REMARK   88  A    between atoms: _228  and  _230
REMARK   89  A    between atoms: _230  and  _231
REMARK   90  A    between atoms: _230  and  _233
REMARK   91  A    between atoms: _233  and  _234
REMARK   92  A    between atoms: _237  and  _239
REMARK   93  A    between atoms: _239  and  _240
REMARK   94  A    between atoms: _239  and  _242
REMARK   95  A    between atoms: _242  and  _243
REMARK   96  A    between atoms: _243  and  _244
REMARK   97  A    between atoms: _243  and  _245
REMARK   98  A    between atoms: _244  and  ZN_877
REMARK   99  A    between atoms: _245  and  ZN_876
REMARK  100  A    between atoms: _247  and  _248
REMARK  101  A    between atoms: _253  and  _255
REMARK  102  A    between atoms: _255  and  _256
REMARK  103  A    between atoms: _259  and  _261
REMARK  104  A    between atoms: _261  and  _262
REMARK  105  A    between atoms: _261  and  _264
REMARK  106  A    between atoms: _264  and  _265
REMARK  107  A    between atoms: _265  and  _266
REMARK  108  A    between atoms: _269  and  _271
REMARK  109  A    between atoms: _271  and  _272
REMARK  110  A    between atoms: _271  and  _274
REMARK  111  A    between atoms: _274  and  _275
REMARK  112  A    between atoms: _275  and  _276
REMARK  113  A    between atoms: _276  and  _278
REMARK  114  A    between atoms: _278  and  ZN_876
REMARK  115  A    between atoms: _279  and  _281
REMARK  116  A    between atoms: _281  and  _282
REMARK  117  A    between atoms: _281  and  _284
REMARK  118  A    between atoms: _284  and  _285
REMARK  119  A    between atoms: _291  and  _293
REMARK  120  A    between atoms: _293  and  _294
REMARK  121  A    between atoms: _296  and  _298
REMARK  122  A    between atoms: _298  and  _299
REMARK  123  A    between atoms: _298  and  _301
REMARK  124  A    between atoms: _301  and  _302
REMARK  125  A    between atoms: _305  and  _307
REMARK  126  A    between atoms: _307  and  _308
REMARK  127  A    between atoms: _307  and  _310
REMARK  128  A    between atoms: _310  and  _311
REMARK  129  A    between atoms: _314  and  _316
REMARK  130  A    between atoms: _316  and  _317
REMARK  131  A    between atoms: _316  and  _319
REMARK  132  A    between atoms: _319  and  _320
REMARK  133  A    between atoms: _325  and  _327
REMARK  134  A    between atoms: _327  and  _328
REMARK  135  A    between atoms: _327  and  _330
REMARK  136  A    between atoms: _330  and  _331
REMARK  137  A    between atoms: _331  and  _333
REMARK  138  A    between atoms: _333  and  ZN_877
REMARK  139  A    between atoms: _334  and  _336
REMARK  140  A    between atoms: _336  and  _337
REMARK  141  A    between atoms: _336  and  _339
REMARK  142  A    between atoms: _339  and  _340
REMARK  143  A    between atoms: _342  and  _344
REMARK  144  A    between atoms: _344  and  _345
REMARK  145  A    between atoms: _344  and  _347
REMARK  146  A    between atoms: _347  and  _348
REMARK  147  A    between atoms: _350  and  _352
REMARK  148  A    between atoms: _352  and  _353
REMARK  149  A    between atoms: _352  and  _355
REMARK  150  A    between atoms: _355  and  _356
REMARK  151  A    between atoms: _359  and  _361
REMARK  152  A    between atoms: _361  and  _362
REMARK  153  A    between atoms: _361  and  _364
REMARK  154  A    between atoms: _364  and  _365
REMARK  155  A    between atoms: _365  and  _366
REMARK  156  A    between atoms: _369  and  _371
REMARK  157  A    between atoms: _371  and  _372
REMARK  158  A    between atoms: _371  and  _374
REMARK  159  A    between atoms: _374  and  _375
REMARK  160  A    between atoms: _380  and  _381
REMARK  161  A    between atoms: _383  and  _385
REMARK  162  A    between atoms: _385  and  _386
REMARK  163  A    between atoms: _385  and  _388
REMARK  164  A    between atoms: _388  and  _389
REMARK  165  A    between atoms: _392  and  _394
REMARK  166  A    between atoms: _394  and  _395
REMARK  167  A    between atoms: _394  and  _397
REMARK  168  A    between atoms: _397  and  _398
REMARK  169  A    between atoms: _401  and  _403
REMARK  170  A    between atoms: _403  and  _404
REMARK  171  A    between atoms: _403  and  _406
REMARK  172  A    between atoms: _406  and  _407
REMARK  173  A    between atoms: _407  and  _408
REMARK  174  A    between atoms: _408  and  _409
REMARK  175  A    between atoms: _418  and  _420
REMARK  176  A    between atoms: _420  and  _421
REMARK  177  A    between atoms: _420  and  _423
REMARK  178  A    between atoms: _426  and  _428
REMARK  179  A    between atoms: _428  and  _429
REMARK  180  A    between atoms: _428  and  _431
REMARK  181  A    between atoms: _431  and  _432
REMARK  182  A    between atoms: _435  and  _437
REMARK  183  A    between atoms: _437  and  _438
REMARK  184  A    between atoms: _437  and  _440
REMARK  185  A    between atoms: _440  and  _441
REMARK  186  A    between atoms: _451  and  _453
REMARK  187  A    between atoms: _453  and  _454
REMARK  188  A    between atoms: _453  and  _456
REMARK  189  A    between atoms: _456  and  _457
REMARK  190  A    between atoms: _457  and  _458
REMARK  191  A    between atoms: _458  and  _459
REMARK  192  A    between atoms: _459  and  _460
REMARK  193  A    between atoms: _464  and  _466
REMARK  194  A    between atoms: _466  and  _467
REMARK  195  A    between atoms: _466  and  _469
REMARK  196  A    between atoms: _469  and  _470
REMARK  197  A    between atoms: _473  and  _474
REMARK  198  A    between atoms: _479  and  _481
REMARK  199  A    between atoms: _481  and  _482
REMARK  200  A    between atoms: _481  and  _484
REMARK  201  A    between atoms: _484  and  _485
REMARK  202  A    between atoms: _485  and  _486
REMARK  203  A    between atoms: _486  and  _487
REMARK  204  A    between atoms: _496  and  _498
REMARK  205  A    between atoms: _498  and  _499
REMARK  206  A    between atoms: _498  and  _501
REMARK  207  A    between atoms: _501  and  _502
REMARK  208  A    between atoms: _505  and  _507
REMARK  209  A    between atoms: _507  and  _508
REMARK  210  A    between atoms: _507  and  _510
REMARK  211  A    between atoms: _510  and  _511
REMARK  212  A    between atoms: _513  and  _515
REMARK  213  A    between atoms: _515  and  _516
REMARK  214  A    between atoms: _515  and  _518
REMARK  215  A    between atoms: _518  and  _519
REMARK  216  A    between atoms: _519  and  _520
REMARK  217  A    between atoms: _520  and  _521
REMARK  218  A    between atoms: _521  and  _522
REMARK  219  A    between atoms: _526  and  _528
REMARK  220  A    between atoms: _528  and  _529
REMARK  221  A    between atoms: _528  and  _531
REMARK  222  A    between atoms: _531  and  _532
REMARK  223  A    between atoms: _535  and  _537
REMARK  224  A    between atoms: _537  and  _538
REMARK  225  A    between atoms: _540  and  _542
REMARK  226  A    between atoms: _542  and  _543
REMARK  227  A    between atoms: _542  and  _545
REMARK  228  A    between atoms: _545  and  _546
REMARK  229  A    between atoms: _548  and  _550
REMARK  230  A    between atoms: _550  and  _551
REMARK  231  A    between atoms: _553  and  _555
REMARK  232  A    between atoms: _555  and  _556
REMARK  233  A    between atoms: _555  and  _558
REMARK  234  A    between atoms: _558  and  _559
REMARK  235  A    between atoms: _564  and  _566
REMARK  236  A    between atoms: _566  and  _567
REMARK  237  A    between atoms: _566  and  _569
REMARK  238  A    between atoms: _569  and  _570
REMARK  239  A    between atoms: _573  and  _575
REMARK  240  A    between atoms: _575  and  _576
REMARK  241  A    between atoms: _575  and  _578
REMARK  242  A    between atoms: _578  and  _579
REMARK  243  A    between atoms: _585  and  _587
REMARK  244  A    between atoms: _587  and  _588
REMARK  245  A    between atoms: _587  and  _590
REMARK  246  A    between atoms: _590  and  _591
REMARK  247  A    between atoms: _591  and  _592
REMARK  248  A    between atoms: _595  and  _597
REMARK  249  A    between atoms: _597  and  _598
REMARK  250  A    between atoms: _597  and  _600
REMARK  251  A    between atoms: _600  and  _601
REMARK  252  A    between atoms: _601  and  _602
REMARK  253  A    between atoms: _602  and  _603
REMARK  254  A    between atoms: _612  and  _614
REMARK  255  A    between atoms: _614  and  _615
REMARK  256  A    between atoms: _614  and  _617
REMARK  257  A    between atoms: _617  and  _618
REMARK  258  A    between atoms: _618  and  _619
REMARK  259  A    between atoms: _619  and  _620
REMARK  260  A    between atoms: _629  and  _631
REMARK  261  A    between atoms: _631  and  _632
REMARK  262  A    between atoms: _631  and  _634
REMARK  263  A    between atoms: _634  and  _635
REMARK  264  A    between atoms: _640  and  _641
REMARK  265  A    between atoms: _643  and  _645
REMARK  266  A    between atoms: _645  and  _646
REMARK  267  A    between atoms: _645  and  _648
REMARK  268  A    between atoms: _648  and  _649
REMARK  269  A    between atoms: _652  and  _654
REMARK  270  A    between atoms: _654  and  _655
REMARK  271  A    between atoms: _654  and  _657
REMARK  272  A    between atoms: _657  and  _658
REMARK  273  A    between atoms: _658  and  _659
REMARK  274  A    between atoms: _659  and  _660
REMARK  275  A    between atoms: _660  and  _661
REMARK  276  A    between atoms: _665  and  _667
REMARK  277  A    between atoms: _667  and  _668
REMARK  278  A    between atoms: _667  and  _670
REMARK  279  A    between atoms: _670  and  _671
REMARK  280  A    between atoms: _676  and  _678
REMARK  281  A    between atoms: _678  and  _679
REMARK  282  A    between atoms: _678  and  _681
REMARK  283  A    between atoms: _681  and  _682
REMARK  284  A    between atoms: _692  and  _694
REMARK  285  A    between atoms: _694  and  _695
REMARK  286  A    between atoms: _694  and  _697
REMARK  287  A    between atoms: _697  and  _698
REMARK  288  A    between atoms: _698  and  _699
REMARK  289  A    between atoms: _702  and  _704
REMARK  290  A    between atoms: _704  and  _705
REMARK  291  A    between atoms: _704  and  _707
REMARK  292  A    between atoms: _707  and  _708
REMARK  293  A    between atoms: _711  and  _713
REMARK  294  A    between atoms: _713  and  _714
REMARK  295  A    between atoms: _713  and  _716
REMARK  296  A    between atoms: _716  and  _717
REMARK  297  A    between atoms: _722  and  _724
REMARK  298  A    between atoms: _724  and  _725
REMARK  299  A    between atoms: _724  and  _727
REMARK  300  A    between atoms: _727  and  _728
REMARK  301  A    between atoms: _734  and  _736
REMARK  302  A    between atoms: _736  and  _737
REMARK  303  A    between atoms: _736  and  _739
REMARK  304  A    between atoms: _739  and  _740
REMARK  305  A    between atoms: _742  and  _744
REMARK  306  A    between atoms: _744  and  _745
REMARK  307  A    between atoms: _747  and  _749
REMARK  308  A    between atoms: _749  and  _750
REMARK  309  A    between atoms: _749  and  _752
REMARK  310  A    between atoms: _752  and  _753
REMARK  311  A    between atoms: _758  and  _759
REMARK  312  A    between atoms: _761  and  _763
REMARK  313  A    between atoms: _763  and  _764
REMARK  314  A    between atoms: _763  and  _766
REMARK  315  A    between atoms: _766  and  _767
REMARK  316  A    between atoms: _772  and  _773
REMARK  317  A    between atoms: _775  and  _777
REMARK  318  A    between atoms: _777  and  _778
REMARK  319  A    between atoms: _777  and  _780
REMARK  320  A    between atoms: _780  and  _781
REMARK  321  A    between atoms: _785  and  ZN_876
REMARK  322  A    between atoms: _786  and  _788
REMARK  323  A    between atoms: _788  and  _789
REMARK  324  A    between atoms: _788  and  _791
REMARK  325  A    between atoms: _791  and  _792
REMARK  326  A    between atoms: _792  and  _793
REMARK  327  A    between atoms: _796  and  _798
REMARK  328  A    between atoms: _798  and  _799
REMARK  329  A    between atoms: _798  and  _801
REMARK  330  A    between atoms: _801  and  _802
REMARK  331  A    between atoms: _802  and  _803
REMARK  332  A    between atoms: _803  and  _804
REMARK  333  A    between atoms: _813  and  _815
REMARK  334  A    between atoms: _815  and  _816
REMARK  335  A    between atoms: _815  and  _818
REMARK  336  A    between atoms: _818  and  _819
REMARK  337  A    between atoms: _824  and  _825
REMARK  338  A    between atoms: _827  and  _829
REMARK  339  A    between atoms: _829  and  _830
REMARK  340  A    between atoms: _829  and  _832
REMARK  341  A    between atoms: _832  and  _833
REMARK  342  A    between atoms: _838  and  _840
REMARK  343  A    between atoms: _840  and  _841
REMARK  344  A    between atoms: _840  and  _843
REMARK  345  A    between atoms: _843  and  _844
REMARK  346  A    between atoms: _844  and  _845
REMARK  347  A    between atoms: _845  and  _846
REMARK  348  A    between atoms: _846  and  _847
REMARK  349  A    between atoms: _851  and  _853
REMARK  350  A    between atoms: _853  and  _854
REMARK  351  A    between atoms: _853  and  _856
REMARK  352  A    between atoms: _856  and  _857
REMARK  353  A    between atoms: _862  and  _863
REMARK  354  A    between atoms: _865  and  _867
REMARK  355  A    between atoms: _867  and  _868
REMARK  356  A    between atoms: _871  and  _873
REMARK  357  A    between atoms: _873  and  _874
REMARK                            x       y       z     vdW  Elec       q    Type
REMARK                         _______ _______ _______ _____ _____    ______ ____
ROOT
ATOM      1  CG  TYR A   1      10.892  59.067  40.287  0.00  0.00    -0.020 A 
ATOM      2  CD2 TYR A   1      10.617  58.017  41.176  0.00  0.00    -0.001 A 
ATOM      3  CE2 TYR A   1      11.065  56.675  40.910  0.00  0.00    +0.036 A 
ATOM      4  CZ  TYR A   1      11.797  56.466  39.751  0.00  0.00    +0.134 A 
ATOM      5  CE1 TYR A   1      12.072  57.485  38.872  0.00  0.00    +0.036 A 
ATOM      6  CD1 TYR A   1      11.622  58.810  39.157  0.00  0.00    -0.001 A 
ENDROOT
BRANCH   4   7
ATOM      7  OH  TYR A   1      12.283  55.202  39.494  0.00  0.00    -0.506 OA
ATOM      8  HH  TYR A   1      11.999  54.587  40.216  0.00  0.00    +0.292 HD
ENDBRANCH   4   7
BRANCH   1   9
ATOM      9  CB  TYR A   1      10.438  60.491  40.579  0.00  0.00    +0.051 C 
BRANCH   9  10
ATOM     10  CA  TYR A   1       9.234  60.561  41.546  0.00  0.00    +0.137 C 
BRANCH  10  11
ATOM     11  N   TYR A   1       8.006  60.111  40.882  0.00  0.00    -0.239 NA
ATOM     12  H   TYR A   1       7.785  60.448  39.923  0.00  0.00    +0.142 HD
ENDBRANCH  10  11
BRANCH  10  13
ATOM     13  C   TYR A   1       8.921  61.993  41.943  0.00  0.00    +0.224 C 
ATOM     14  O   TYR A   1       8.931  62.902  41.094  0.00  0.00    -0.287 OA
ENDBRANCH  10  13
ENDBRANCH   9  10
ENDBRANCH   1   9
TORSDOF 5
REMARK  Name = ../refined-set-2016/2xei/2xei_pocket.pdb
REMARK  357 active torsions:
REMARK  status: ('A' for Active; 'I' for Inactive)
REMARK    1  A    between atoms: _1  and  _3
REMARK    2  A    between atoms: _3  and  _4
REMARK    3  A    between atoms: _7  and  _9
REMARK    4  A    between atoms: _9  and  _10
REMARK    5  A    between atoms: _9  and  _12
REMARK    6  A    between atoms: _12  and  _13
REMARK    7  A    between atoms: _19  and  _21
REMARK    8  A    between atoms: _21  and  _22
REMARK    9  A    between atoms: _24  and  _26
REMARK   10  A    between atoms: _26  and  _27
REMARK   11  A    between atoms: _26  and  _29
REMARK   12  A    between atoms: _29  and  _30
REMARK   13  A    between atoms: _30  and  _31
REMARK   14  A    between atoms: _31  and  _32
REMARK   15  A    between atoms: _32  and  _33
REMARK   16  A    between atoms: _37  and  _39
REMARK   17  A    between atoms: _39  and  _40
REMARK   18  A    between atoms: _39  and  _42
REMARK   19  A    between atoms: _45  and  _47
REMARK   20  A    between atoms: _47  and  _48
REMARK   21  A    between atoms: _47  and  _50
REMARK   22  A    between atoms: _50  and  _51
REMARK   23  A    between atoms: _57  and  _59
REMARK   24  A    between atoms: _59  and  _60
REMARK   25  A    between atoms: _59  and  _62
REMARK   26  A    between atoms: _62  and  _63
REMARK   27  A    between atoms: _63  and  _64
REMARK   28  A    between atoms: _64  and  _65
REMARK   29  A    between atoms: _74  and  _76
REMARK   30  A    between atoms: _76  and  _77
REMARK   31  A    between atoms: _79  and  _81
REMARK   32  A    between atoms: _81  and  _82
REMARK   33  A    between atoms: _81  and  _84
REMARK   34  A    between atoms: _84  and  _85
REMARK   35  A    between atoms: _90  and  _91
REMARK   36  A    between atoms: _93  and  _95
REMARK   37  A    between atoms: _95  and  _96
REMARK   38  A    between atoms: _95  and  _98
REMARK   39  A    between atoms: _98  and  _99
REMARK   40  A    between atoms: _99  and  _100
REMARK   41  A    between atoms: _105  and  _107
REMARK   42  A    between atoms: _107  and  _108
REMARK   43  A    between atoms: _107  and  _110
REMARK   44  A    between atoms: _110  and  _111
REMARK   45  A    between atoms: _111  and  _112
REMARK   46  A    between atoms: _112  and  _113
REMARK   47  A    between atoms: _122  and  _124
REMARK   48  A    between atoms: _124  and  _125
REMARK   49  A    between atoms: _127  and  _129
REMARK   50  A    between atoms: _129  and  _130
REMARK   51  A    between atoms: _129  and  _132
REMARK   52  A    between atoms: _132  and  _133
REMARK   53  A    between atoms: _138  and  _140
REMARK   54  A    between atoms: _140  and  _141
REMARK   55  A    between atoms: _140  and  _143
REMARK   56  A    between atoms: _143  and  _144
REMARK   57  A    between atoms: _147  and  _149
REMARK   58  A    between atoms: _149  and  _150
REMARK   59  A    between atoms: _149  and  _152
REMARK   60  A    between atoms: _152  and  _153
REMARK   61  A    between atoms: _156  and  _158
REMARK   62  A    between atoms: _158  and  _159
REMARK   63  A    between atoms: _158  and  _161
REMARK   64  A    between atoms: _161  and  _162
REMARK   65  A    between atoms: _167  and  _169
REMARK   66  A    between atoms: _169  and  _170
REMARK   67  A    between atoms: _169  and  _172
REMARK   68  A    between atoms: _172  and  _173
REMARK   69  A    between atoms: _176  and  _178
REMARK   70  A    between atoms: _178  and  _179
REMARK   71  A    between atoms: _178  and  _181
REMARK   72  A    between atoms: _181  and  _182
REMARK   73  A    between atoms: _187  and  _189
REMARK   74  A    between atoms: _189  and  _190
REMARK   75  A    between atoms: _192  and  _194
REMARK   76  A    between atoms: _194  and  _195
REMARK   77  A    between atoms: _194  and  _197
REMARK   78  A    between atoms: _197  and  _198
REMARK   79  A    between atoms: _202  and  ZN_877
REMARK   80  A    between atoms: _203  and  _205
REMARK   81  A    between atoms: _205  and  _206
REMARK   82  A    between atoms: _205  and  _208
REMARK   83  A    between atoms: _208  and  _209
REMARK   84  A    between atoms: _212  and  _214
REMARK   85  A    between atoms: _214  and  _215
REMARK   86  A    between atoms: _214  and  _217
REMARK   87  A    between atoms: _217  and  _218
REMARK   88  A    between atoms: _228  and  _230
REMARK   89  A    between atoms: _230  and  _231
REMARK   90  A    between atoms: _230  and  _233
REMARK   91  A    between atoms: _233  and  _234
REMARK   92  A    between atoms: _237  and  _239
REMARK   93  A    between atoms: _239  and  _240
REMARK   94  A    between atoms: _239  and  _242
REMARK   95  A    between atoms: _242  and  _243
REMARK   96  A    between atoms: _243  and  _244
REMARK   97  A    between atoms: _243  and  _245
REMARK   98  A    between atoms: _244  and  ZN_877
REMARK   99  A    between atoms: _245  and  ZN_876
REMARK  100  A    between atoms: _247  and  _248
REMARK  101  A    between atoms: _253  and  _255
REMARK  102  A    between atoms: _255  and  _256
REMARK  103  A    between atoms: _259  and  _261
REMARK  104  A    between atoms: _261  and  _262
REMARK  105  A    between atoms: _261  and  _264
REMARK  106  A    between atoms: _264  and  _265
REMARK  107  A    between atoms: _265  and  _266
REMARK  108  A    between atoms: _269  and  _271
REMARK  109  A    between atoms: _271  and  _272
REMARK  110  A    between atoms: _271  and  _274
REMARK  111  A    between atoms: _274  and  _275
REMARK  112  A    between atoms: _275  and  _276
REMARK  113  A    between atoms: _276  and  _278
REMARK  114  A    between atoms: _278  and  ZN_876
REMARK  115  A    between atoms: _279  and  _281
REMARK  116  A    between atoms: _281  and  _282
REMARK  117  A    between atoms: _281  and  _284
REMARK  118  A    between atoms: _284  and  _285
REMARK  119  A    between atoms: _291  and  _293
REMARK  120  A    between atoms: _293  and  _294
REMARK  121  A    between atoms: _296  and  _298
REMARK  122  A    between atoms: _298  and  _299
REMARK  123  A    between atoms: _298  and  _301
REMARK  124  A    between atoms: _301  and  _302
REMARK  125  A    between atoms: _305  and  _307
REMARK  126  A    between atoms: _307  and  _308
REMARK  127  A    between atoms: _307  and  _310
REMARK  128  A    between atoms: _310  and  _311
REMARK  129  A    between atoms: _314  and  _316
REMARK  130  A    between atoms: _316  and  _317
REMARK  131  A    between atoms: _316  and  _319
REMARK  132  A    between atoms: _319  and  _320
REMARK  133  A    between atoms: _325  and  _327
REMARK  134  A    between atoms: _327  and  _328
REMARK  135  A    between atoms: _327  and  _330
REMARK  136  A    between atoms: _330  and  _331
REMARK  137  A    between atoms: _331  and  _333
REMARK  138  A    between atoms: _333  and  ZN_877
REMARK  139  A    between atoms: _334  and  _336
REMARK  140  A    between atoms: _336  and  _337
REMARK  141  A    between atoms: _336  and  _339
REMARK  142  A    between atoms: _339  and  _340
REMARK  143  A    between atoms: _342  and  _344
REMARK  144  A    between atoms: _344  and  _345
REMARK  145  A    between atoms: _344  and  _347
REMARK  146  A    between atoms: _347  and  _348
REMARK  147  A    between atoms: _350  and  _352
REMARK  148  A    between atoms: _352  and  _353
REMARK  149  A    between atoms: _352  and  _355
REMARK  150  A    between atoms: _355  and  _356
REMARK  151  A    between atoms: _359  and  _361
REMARK  152  A    between atoms: _361  and  _362
REMARK  153  A    between atoms: _361  and  _364
REMARK  154  A    between atoms: _364  and  _365
REMARK  155  A    between atoms: _365  and  _366
REMARK  156  A    between atoms: _369  and  _371
REMARK  157  A    between atoms: _371  and  _372
REMARK  158  A    between atoms: _371  and  _374
REMARK  159  A    between atoms: _374  and  _375
REMARK  160  A    between atoms: _380  and  _381
REMARK  161  A    between atoms: _383  and  _385
REMARK  162  A    between atoms: _385  and  _386
REMARK  163  A    between atoms: _385  and  _388
REMARK  164  A    between atoms: _388  and  _389
REMARK  165  A    between atoms: _392  and  _394
REMARK  166  A    between atoms: _394  and  _395
REMARK  167  A    between atoms: _394  and  _397
REMARK  168  A    between atoms: _397  and  _398
REMARK  169  A    between atoms: _401  and  _403
REMARK  170  A    between atoms: _403  and  _404
REMARK  171  A    between atoms: _403  and  _406
REMARK  172  A    between atoms: _406  and  _407
REMARK  173  A    between atoms: _407  and  _408
REMARK  174  A    between atoms: _408  and  _409
REMARK  175  A    between atoms: _418  and  _420
REMARK  176  A    between atoms: _420  and  _421
REMARK  177  A    between atoms: _420  and  _423
REMARK  178  A    between atoms: _426  and  _428
REMARK  179  A    between atoms: _428  and  _429
REMARK  180  A    between atoms: _428  and  _431
REMARK  181  A    between atoms: _431  and  _432
REMARK  182  A    between atoms: _435  and  _437
REMARK  183  A    between atoms: _437  and  _438
REMARK  184  A    between atoms: _437  and  _440
REMARK  185  A    between atoms: _440  and  _441
REMARK  186  A    between atoms: _451  and  _453
REMARK  187  A    between atoms: _453  and  _454
REMARK  188  A    between atoms: _453  and  _456
REMARK  189  A    between atoms: _456  and  _457
REMARK  190  A    between atoms: _457  and  _458
REMARK  191  A    between atoms: _458  and  _459
REMARK  192  A    between atoms: _459  and  _460
REMARK  193  A    between atoms: _464  and  _466
REMARK  194  A    between atoms: _466  and  _467
REMARK  195  A    between atoms: _466  and  _469
REMARK  196  A    between atoms: _469  and  _470
REMARK  197  A    between atoms: _473  and  _474
REMARK  198  A    between atoms: _479  and  _481
REMARK  199  A    between atoms: _481  and  _482
REMARK  200  A    between atoms: _481  and  _484
REMARK  201  A    between atoms: _484  and  _485
REMARK  202  A    between atoms: _485  and  _486
REMARK  203  A    between atoms: _486  and  _487
REMARK  204  A    between atoms: _496  and  _498
REMARK  205  A    between atoms: _498  and  _499
REMARK  206  A    between atoms: _498  and  _501
REMARK  207  A    between atoms: _501  and  _502
REMARK  208  A    between atoms: _505  and  _507
REMARK  209  A    between atoms: _507  and  _508
REMARK  210  A    between atoms: _507  and  _510
REMARK  211  A    between atoms: _510  and  _511
REMARK  212  A    between atoms: _513  and  _515
REMARK  213  A    between atoms: _515  and  _516
REMARK  214  A    between atoms: _515  and  _518
REMARK  215  A    between atoms: _518  and  _519
REMARK  216  A    between atoms: _519  and  _520
REMARK  217  A    between atoms: _520  and  _521
REMARK  218  A    between atoms: _521  and  _522
REMARK  219  A    between atoms: _526  and  _528
REMARK  220  A    between atoms: _528  and  _529
REMARK  221  A    between atoms: _528  and  _531
REMARK  222  A    between atoms: _531  and  _532
REMARK  223  A    between atoms: _535  and  _537
REMARK  224  A    between atoms: _537  and  _538
REMARK  225  A    between atoms: _540  and  _542
REMARK  226  A    between atoms: _542  and  _543
REMARK  227  A    between atoms: _542  and  _545
REMARK  228  A    between atoms: _545  and  _546
REMARK  229  A    between atoms: _548  and  _550
REMARK  230  A    between atoms: _550  and  _551
REMARK  231  A    between atoms: _553  and  _555
REMARK  232  A    between atoms: _555  and  _556
REMARK  233  A    between atoms: _555  and  _558
REMARK  234  A    between atoms: _558  and  _559
REMARK  235  A    between atoms: _564  and  _566
REMARK  236  A    between atoms: _566  and  _567
REMARK  237  A    between atoms: _566  and  _569
REMARK  238  A    between atoms: _569  and  _570
REMARK  239  A    between atoms: _573  and  _575
REMARK  240  A    between atoms: _575  and  _576
REMARK  241  A    between atoms: _575  and  _578
REMARK  242  A    between atoms: _578  and  _579
REMARK  243  A    between atoms: _585  and  _587
REMARK  244  A    between atoms: _587  and  _588
REMARK  245  A    between atoms: _587  and  _590
REMARK  246  A    between atoms: _590  and  _591
REMARK  247  A    between atoms: _591  and  _592
REMARK  248  A    between atoms: _595  and  _597
REMARK  249  A    between atoms: _597  and  _598
REMARK  250  A    between atoms: _597  and  _600
REMARK  251  A    between atoms: _600  and  _601
REMARK  252  A    between atoms: _601  and  _602
REMARK  253  A    between atoms: _602  and  _603
REMARK  254  A    between atoms: _612  and  _614
REMARK  255  A    between atoms: _614  and  _615
REMARK  256  A    between atoms: _614  and  _617
REMARK  257  A    between atoms: _617  and  _618
REMARK  258  A    between atoms: _618  and  _619
REMARK  259  A    between atoms: _619  and  _620
REMARK  260  A    between atoms: _629  and  _631
REMARK  261  A    between atoms: _631  and  _632
REMARK  262  A    between atoms: _631  and  _634
REMARK  263  A    between atoms: _634  and  _635
REMARK  264  A    between atoms: _640  and  _641
REMARK  265  A    between atoms: _643  and  _645
REMARK  266  A    between atoms: _645  and  _646
REMARK  267  A    between atoms: _645  and  _648
REMARK  268  A    between atoms: _648  and  _649
REMARK  269  A    between atoms: _652  and  _654
REMARK  270  A    between atoms: _654  and  _655
REMARK  271  A    between atoms: _654  and  _657
REMARK  272  A    between atoms: _657  and  _658
REMARK  273  A    between atoms: _658  and  _659
REMARK  274  A    between atoms: _659  and  _660
REMARK  275  A    between atoms: _660  and  _661
REMARK  276  A    between atoms: _665  and  _667
REMARK  277  A    between atoms: _667  and  _668
REMARK  278  A    between atoms: _667  and  _670
REMARK  279  A    between atoms: _670  and  _671
REMARK  280  A    between atoms: _676  and  _678
REMARK  281  A    between atoms: _678  and  _679
REMARK  282  A    between atoms: _678  and  _681
REMARK  283  A    between atoms: _681  and  _682
REMARK  284  A    between atoms: _692  and  _694
REMARK  285  A    between atoms: _694  and  _695
REMARK  286  A    between atoms: _694  and  _697
REMARK  287  A    between atoms: _697  and  _698
REMARK  288  A    between atoms: _698  and  _699
REMARK  289  A    between atoms: _702  and  _704
REMARK  290  A    between atoms: _704  and  _705
REMARK  291  A    between atoms: _704  and  _707
REMARK  292  A    between atoms: _707  and  _708
REMARK  293  A    between atoms: _711  and  _713
REMARK  294  A    between atoms: _713  and  _714
REMARK  295  A    between atoms: _713  and  _716
REMARK  296  A    between atoms: _716  and  _717
REMARK  297  A    between atoms: _722  and  _724
REMARK  298  A    between atoms: _724  and  _725
REMARK  299  A    between atoms: _724  and  _727
REMARK  300  A    between atoms: _727  and  _728
REMARK  301  A    between atoms: _734  and  _736
REMARK  302  A    between atoms: _736  and  _737
REMARK  303  A    between atoms: _736  and  _739
REMARK  304  A    between atoms: _739  and  _740
REMARK  305  A    between atoms: _742  and  _744
REMARK  306  A    between atoms: _744  and  _745
REMARK  307  A    between atoms: _747  and  _749
REMARK  308  A    between atoms: _749  and  _750
REMARK  309  A    between atoms: _749  and  _752
REMARK  310  A    between atoms: _752  and  _753
REMARK  311  A    between atoms: _758  and  _759
REMARK  312  A    between atoms: _761  and  _763
REMARK  313  A    between atoms: _763  and  _764
REMARK  314  A    between atoms: _763  and  _766
REMARK  315  A    between atoms: _766  and  _767
REMARK  316  A    between atoms: _772  and  _773
REMARK  317  A    between atoms: _775  and  _777
REMARK  318  A    between atoms: _777  and  _778
REMARK  319  A    between atoms: _777  and  _780
REMARK  320  A    between atoms: _780  and  _781
REMARK  321  A    between atoms: _785  and  ZN_876
REMARK  322  A    between atoms: _786  and  _788
REMARK  323  A    between atoms: _788  and  _789
REMARK  324  A    between atoms: _788  and  _791
REMARK  325  A    between atoms: _791  and  _792
REMARK  326  A    between atoms: _792  and  _793
REMARK  327  A    between atoms: _796  and  _798
REMARK  328  A    between atoms: _798  and  _799
REMARK  329  A    between atoms: _798  and  _801
REMARK  330  A    between atoms: _801  and  _802
REMARK  331  A    between atoms: _802  and  _803
REMARK  332  A    between atoms: _803  and  _804
REMARK  333  A    between atoms: _813  and  _815
REMARK  334  A    between atoms: _815  and  _816
REMARK  335  A    between atoms: _815  and  _818
REMARK  336  A    between atoms: _818  and  _819
REMARK  337  A    between atoms: _824  and  _825
REMARK  338  A    between atoms: _827  and  _829
REMARK  339  A    between atoms: _829  and  _830
REMARK  340  A    between atoms: _829  and  _832
REMARK  341  A    between atoms: _832  and  _833
REMARK  342  A    between atoms: _838  and  _840
REMARK  343  A    between atoms: _840  and  _841
REMARK  344  A    between atoms: _840  and  _843
REMARK  345  A    between atoms: _843  and  _844
REMARK  346  A    between atoms: _844  and  _845
REMARK  347  A    between atoms: _845  and  _846
REMARK  348  A    between atoms: _846  and  _847
REMARK  349  A    between atoms: _851  and  _853
REMARK  350  A    between atoms: _853  and  _854
REMARK  351  A    between atoms: _853  and  _856
REMARK  352  A    between atoms: _856  and  _857
REMARK  353  A    between atoms: _862  and  _863
REMARK  354  A    between atoms: _865  and  _867
REMARK  355  A    between atoms: _867  and  _868
REMARK  356  A    between atoms: _871  and  _873
REMARK  357  A    between atoms: _873  and  _874
REMARK                            x       y       z     vdW  Elec       q    Type
REMARK                         _______ _______ _______ _____ _____    ______ ____
ROOT
ATOM      1  C   LYS A   2      18.585  53.414  39.576  0.00  0.00    +0.241 C 
ATOM      2  O   LYS A   2      18.101  53.804  40.660  0.00  0.00    -0.273 OA
ATOM      3  N   TYR A   3      19.736  52.723  39.553  0.00  0.00    -0.297 N 
ATOM      4  H   TYR A   3      20.163  52.431  38.651  0.00  0.00    +0.150 HD
ENDROOT
BRANCH   3   5
ATOM      5  CA  TYR A   3      20.392  52.382  40.857  0.00  0.00    +0.153 C 
BRANCH   5   6
ATOM      6  C   TYR A   3      21.024  53.567  41.559  0.00  0.00    +0.241 C 
ATOM      7  O   TYR A   3      21.216  53.524  42.789  0.00  0.00    -0.273 OA
ATOM      8  N   ALA A   4      21.415  54.593  40.795  0.00  0.00    -0.297 N 
ATOM      9  H   ALA A   4      21.180  54.586  39.782  0.00  0.00    +0.150 HD
BRANCH   8  10
ATOM     10  CA  ALA A   4      22.165  55.727  41.345  0.00  0.00    +0.149 C 
ATOM     11  CB  ALA A   4      23.131  56.231  40.332  0.00  0.00    +0.031 C 
BRANCH  10  12
ATOM     12  C   ALA A   4      21.215  56.865  41.755  0.00  0.00    +0.241 C 
ATOM     13  N   GLY A   5      21.465  57.497  42.895  0.00  0.00    -0.296 N 
ATOM     14  H   GLY A   5      22.213  57.180  43.545  0.00  0.00    +0.150 HD
ATOM     15  O   ALA A   4      20.254  57.144  41.047  0.00  0.00    -0.273 OA
BRANCH  13  16
ATOM     16  CA  GLY A   5      20.629  58.668  43.190  0.00  0.00    +0.163 C 
BRANCH  16  17
ATOM     17  C   GLY A   5      21.220  59.881  42.500  0.00  0.00    +0.229 C 
ATOM     18  O   GLY A   5      22.450  59.943  42.281  0.00  0.00    -0.286 OA
ENDBRANCH  16  17
ENDBRANCH  13  16
ENDBRANCH  10  12
ENDBRANCH   8  10
ENDBRANCH   5   6
BRANCH   5  19
ATOM     19  CB  TYR A   3      21.512  51.367  40.629  0.00  0.00    +0.055 C 
BRANCH  19  20
ATOM     20  CG  TYR A   3      21.064  49.983  40.187  0.00  0.00    -0.020 A 
ATOM     21  CD2 TYR A   3      19.926  49.384  40.721  0.00  0.00    -0.001 A 
ATOM     22  CE2 TYR A   3      19.514  48.061  40.270  0.00  0.00    +0.036 A 
ATOM     23  CZ  TYR A   3      20.308  47.376  39.348  0.00  0.00    +0.134 A 
ATOM     24  CE1 TYR A   3      21.452  47.968  38.809  0.00  0.00    +0.036 A 
ATOM     25  CD1 TYR A   3      21.816  49.271  39.228  0.00  0.00    -0.001 A 
BRANCH  23  26
ATOM     26  OH  TYR A   3      19.936  46.122  38.931  0.00  0.00    -0.506 OA
ATOM     27  HH  TYR A   3      19.111  45.849  39.405  0.00  0.00    +0.292 HD
ENDBRANCH  23  26
ENDBRANCH  19  20
ENDBRANCH   5  19
ENDBRANCH   3   5
BRANCH   1  28
ATOM     28  CA  LYS A   2      17.892  53.723  38.261  0.00  0.00    +0.149 C 
BRANCH  28  31
ATOM     29  C   ASN A   1      19.922  54.560  37.162  0.00  0.00    +0.239 C 
ATOM     30  O   ASN A   1      20.239  55.237  38.118  0.00  0.00    -0.274 OA
ATOM     31  N   LYS A   2      18.818  53.809  37.120  0.00  0.00    -0.297 N 
ATOM     32  H   LYS A   2      18.607  53.270  36.256  0.00  0.00    +0.150 HD
BRANCH  29  33
ATOM     33  CA  ASN A   1      20.751  54.587  35.897  0.00  0.00    +0.154 C 
BRANCH  33  34
ATOM     34  N   ASN A   1      20.318  55.773  35.126  0.00  0.00    -0.238 NA
ATOM     35  H   ASN A   1      19.688  56.480  35.556  0.00  0.00    +0.142 HD
ENDBRANCH  33  34
BRANCH  33  36
ATOM     36  CB  ASN A   1      22.236  54.683  36.292  0.00  0.00    +0.111 C 
BRANCH  36  37
ATOM     37  CG  ASN A   1      22.647  53.549  37.241  0.00  0.00    +0.221 C 
ATOM     38  ND2 ASN A   1      23.814  53.655  37.895  0.00  0.00    -0.329 N 
ATOM     39 HD21 ASN A   1      24.130  52.888  38.523  0.00  0.00    +0.145 HD
ATOM     40 HD22 ASN A   1      24.403  54.504  37.774  0.00  0.00    +0.145 HD
ATOM     41  OD1 ASN A   1      21.922  52.567  37.354  0.00  0.00    -0.275 OA
ENDBRANCH  36  37
ENDBRANCH  33  36
ENDBRANCH  29  33
ENDBRANCH  28  31
BRANCH  28  42
ATOM     42  CB  LYS A   2      16.907  52.578  37.939  0.00  0.00    +0.029 C 
BRANCH  42  43
ATOM     43  CG  LYS A   2      15.841  52.468  38.888  0.00  0.00    +0.000 C 
BRANCH  43  44
ATOM     44  CD  LYS A   2      14.881  51.370  38.432  0.00  0.00    -0.024 C 
BRANCH  44  45
ATOM     45  CE  LYS A   2      13.505  51.635  39.139  0.00  0.00    -0.086 C 
BRANCH  45  46
ATOM     46  NZ  LYS A   2      12.564  50.500  38.869  0.00  0.00    +0.380 N 
ATOM     47  HZ1 LYS A   2      11.656  50.684  39.341  0.00  0.00    -0.089 HD
ATOM     48  HZ2 LYS A   2      12.974  49.617  39.235  0.00  0.00    -0.089 HD
ATOM     49  HZ3 LYS A   2      12.412  50.414  37.844  0.00  0.00    -0.089 HD
ENDBRANCH  45  46
ENDBRANCH  44  45
ENDBRANCH  43  44
ENDBRANCH  42  43
ENDBRANCH  28  42
ENDBRANCH   1  28
TORSDOF 20
REMARK  Name = ../refined-set-2016/2xei/2xei_pocket.pdb
REMARK  357 active torsions:
REMARK  status: ('A' for Active; 'I' for Inactive)
REMARK    1  A    between atoms: _1  and  _3
REMARK    2  A    between atoms: _3  and  _4
REMARK    3  A    between atoms: _7  and  _9
REMARK    4  A    between atoms: _9  and  _10
REMARK    5  A    between atoms: _9  and  _12
REMARK    6  A    between atoms: _12  and  _13
REMARK    7  A    between atoms: _19  and  _21
REMARK    8  A    between atoms: _21  and  _22
REMARK    9  A    between atoms: _24  and  _26
REMARK   10  A    between atoms: _26  and  _27
REMARK   11  A    between atoms: _26  and  _29
REMARK   12  A    between atoms: _29  and  _30
REMARK   13  A    between atoms: _30  and  _31
REMARK   14  A    between atoms: _31  and  _32
REMARK   15  A    between atoms: _32  and  _33
REMARK   16  A    between atoms: _37  and  _39
REMARK   17  A    between atoms: _39  and  _40
REMARK   18  A    between atoms: _39  and  _42
REMARK   19  A    between atoms: _45  and  _47
REMARK   20  A    between atoms: _47  and  _48
REMARK   21  A    between atoms: _47  and  _50
REMARK   22  A    between atoms: _50  and  _51
REMARK   23  A    between atoms: _57  and  _59
REMARK   24  A    between atoms: _59  and  _60
REMARK   25  A    between atoms: _59  and  _62
REMARK   26  A    between atoms: _62  and  _63
REMARK   27  A    between atoms: _63  and  _64
REMARK   28  A    between atoms: _64  and  _65
REMARK   29  A    between atoms: _74  and  _76
REMARK   30  A    between atoms: _76  and  _77
REMARK   31  A    between atoms: _79  and  _81
REMARK   32  A    between atoms: _81  and  _82
REMARK   33  A    between atoms: _81  and  _84
REMARK   34  A    between atoms: _84  and  _85
REMARK   35  A    between atoms: _90  and  _91
REMARK   36  A    between atoms: _93  and  _95
REMARK   37  A    between atoms: _95  and  _96
REMARK   38  A    between atoms: _95  and  _98
REMARK   39  A    between atoms: _98  and  _99
REMARK   40  A    between atoms: _99  and  _100
REMARK   41  A    between atoms: _105  and  _107
REMARK   42  A    between atoms: _107  and  _108
REMARK   43  A    between atoms: _107  and  _110
REMARK   44  A    between atoms: _110  and  _111
REMARK   45  A    between atoms: _111  and  _112
REMARK   46  A    between atoms: _112  and  _113
REMARK   47  A    between atoms: _122  and  _124
REMARK   48  A    between atoms: _124  and  _125
REMARK   49  A    between atoms: _127  and  _129
REMARK   50  A    between atoms: _129  and  _130
REMARK   51  A    between atoms: _129  and  _132
REMARK   52  A    between atoms: _132  and  _133
REMARK   53  A    between atoms: _138  and  _140
REMARK   54  A    between atoms: _140  and  _141
REMARK   55  A    between atoms: _140  and  _143
REMARK   56  A    between atoms: _143  and  _144
REMARK   57  A    between atoms: _147  and  _149
REMARK   58  A    between atoms: _149  and  _150
REMARK   59  A    between atoms: _149  and  _152
REMARK   60  A    between atoms: _152  and  _153
REMARK   61  A    between atoms: _156  and  _158
REMARK   62  A    between atoms: _158  and  _159
REMARK   63  A    between atoms: _158  and  _161
REMARK   64  A    between atoms: _161  and  _162
REMARK   65  A    between atoms: _167  and  _169
REMARK   66  A    between atoms: _169  and  _170
REMARK   67  A    between atoms: _169  and  _172
REMARK   68  A    between atoms: _172  and  _173
REMARK   69  A    between atoms: _176  and  _178
REMARK   70  A    between atoms: _178  and  _179
REMARK   71  A    between atoms: _178  and  _181
REMARK   72  A    between atoms: _181  and  _182
REMARK   73  A    between atoms: _187  and  _189
REMARK   74  A    between atoms: _189  and  _190
REMARK   75  A    between atoms: _192  and  _194
REMARK   76  A    between atoms: _194  and  _195
REMARK   77  A    between atoms: _194  and  _197
REMARK   78  A    between atoms: _197  and  _198
REMARK   79  A    between atoms: _202  and  ZN_877
REMARK   80  A    between atoms: _203  and  _205
REMARK   81  A    between atoms: _205  and  _206
REMARK   82  A    between atoms: _205  and  _208
REMARK   83  A    between atoms: _208  and  _209
REMARK   84  A    between atoms: _212  and  _214
REMARK   85  A    between atoms: _214  and  _215
REMARK   86  A    between atoms: _214  and  _217
REMARK   87  A    between atoms: _217  and  _218
REMARK   88  A    between atoms: _228  and  _230
REMARK   89  A    between atoms: _230  and  _231
REMARK   90  A    between atoms: _230  and  _233
REMARK   91  A    between atoms: _233  and  _234
REMARK   92  A    between atoms: _237  and  _239
REMARK   93  A    between atoms: _239  and  _240
REMARK   94  A    between atoms: _239  and  _242
REMARK   95  A    between atoms: _242  and  _243
REMARK   96  A    between atoms: _243  and  _244
REMARK   97  A    between atoms: _243  and  _245
REMARK   98  A    between atoms: _244  and  ZN_877
REMARK   99  A    between atoms: _245  and  ZN_876
REMARK  100  A    between atoms: _247  and  _248
REMARK  101  A    between atoms: _253  and  _255
REMARK  102  A    between atoms: _255  and  _256
REMARK  103  A    between atoms: _259  and  _261
REMARK  104  A    between atoms: _261  and  _262
REMARK  105  A    between atoms: _261  and  _264
REMARK  106  A    between atoms: _264  and  _265
REMARK  107  A    between atoms: _265  and  _266
REMARK  108  A    between atoms: _269  and  _271
REMARK  109  A    between atoms: _271  and  _272
REMARK  110  A    between atoms: _271  and  _274
REMARK  111  A    between atoms: _274  and  _275
REMARK  112  A    between atoms: _275  and  _276
REMARK  113  A    between atoms: _276  and  _278
REMARK  114  A    between atoms: _278  and  ZN_876
REMARK  115  A    between atoms: _279  and  _281
REMARK  116  A    between atoms: _281  and  _282
REMARK  117  A    between atoms: _281  and  _284
REMARK  118  A    between atoms: _284  and  _285
REMARK  119  A    between atoms: _291  and  _293
REMARK  120  A    between atoms: _293  and  _294
REMARK  121  A    between atoms: _296  and  _298
REMARK  122  A    between atoms: _298  and  _299
REMARK  123  A    between atoms: _298  and  _301
REMARK  124  A    between atoms: _301  and  _302
REMARK  125  A    between atoms: _305  and  _307
REMARK  126  A    between atoms: _307  and  _308
REMARK  127  A    between atoms: _307  and  _310
REMARK  128  A    between atoms: _310  and  _311
REMARK  129  A    between atoms: _314  and  _316
REMARK  130  A    between atoms: _316  and  _317
REMARK  131  A    between atoms: _316  and  _319
REMARK  132  A    between atoms: _319  and  _320
REMARK  133  A    between atoms: _325  and  _327
REMARK  134  A    between atoms: _327  and  _328
REMARK  135  A    between atoms: _327  and  _330
REMARK  136  A    between atoms: _330  and  _331
REMARK  137  A    between atoms: _331  and  _333
REMARK  138  A    between atoms: _333  and  ZN_877
REMARK  139  A    between atoms: _334  and  _336
REMARK  140  A    between atoms: _336  and  _337
REMARK  141  A    between atoms: _336  and  _339
REMARK  142  A    between atoms: _339  and  _340
REMARK  143  A    between atoms: _342  and  _344
REMARK  144  A    between atoms: _344  and  _345
REMARK  145  A    between atoms: _344  and  _347
REMARK  146  A    between atoms: _347  and  _348
REMARK  147  A    between atoms: _350  and  _352
REMARK  148  A    between atoms: _352  and  _353
REMARK  149  A    between atoms: _352  and  _355
REMARK  150  A    between atoms: _355  and  _356
REMARK  151  A    between atoms: _359  and  _361
REMARK  152  A    between atoms: _361  and  _362
REMARK  153  A    between atoms: _361  and  _364
REMARK  154  A    between atoms: _364  and  _365
REMARK  155  A    between atoms: _365  and  _366
REMARK  156  A    between atoms: _369  and  _371
REMARK  157  A    between atoms: _371  and  _372
REMARK  158  A    between atoms: _371  and  _374
REMARK  159  A    between atoms: _374  and  _375
REMARK  160  A    between atoms: _380  and  _381
REMARK  161  A    between atoms: _383  and  _385
REMARK  162  A    between atoms: _385  and  _386
REMARK  163  A    between atoms: _385  and  _388
REMARK  164  A    between atoms: _388  and  _389
REMARK  165  A    between atoms: _392  and  _394
REMARK  166  A    between atoms: _394  and  _395
REMARK  167  A    between atoms: _394  and  _397
REMARK  168  A    between atoms: _397  and  _398
REMARK  169  A    between atoms: _401  and  _403
REMARK  170  A    between atoms: _403  and  _404
REMARK  171  A    between atoms: _403  and  _406
REMARK  172  A    between atoms: _406  and  _407
REMARK  173  A    between atoms: _407  and  _408
REMARK  174  A    between atoms: _408  and  _409
REMARK  175  A    between atoms: _418  and  _420
REMARK  176  A    between atoms: _420  and  _421
REMARK  177  A    between atoms: _420  and  _423
REMARK  178  A    between atoms: _426  and  _428
REMARK  179  A    between atoms: _428  and  _429
REMARK  180  A    between atoms: _428  and  _431
REMARK  181  A    between atoms: _431  and  _432
REMARK  182  A    between atoms: _435  and  _437
REMARK  183  A    between atoms: _437  and  _438
REMARK  184  A    between atoms: _437  and  _440
REMARK  185  A    between atoms: _440  and  _441
REMARK  186  A    between atoms: _451  and  _453
REMARK  187  A    between atoms: _453  and  _454
REMARK  188  A    between atoms: _453  and  _456
REMARK  189  A    between atoms: _456  and  _457
REMARK  190  A    between atoms: _457  and  _458
REMARK  191  A    between atoms: _458  and  _459
REMARK  192  A    between atoms: _459  and  _460
REMARK  193  A    between atoms: _464  and  _466
REMARK  194  A    between atoms: _466  and  _467
REMARK  195  A    between atoms: _466  and  _469
REMARK  196  A    between atoms: _469  and  _470
REMARK  197  A    between atoms: _473  and  _474
REMARK  198  A    between atoms: _479  and  _481
REMARK  199  A    between atoms: _481  and  _482
REMARK  200  A    between atoms: _481  and  _484
REMARK  201  A    between atoms: _484  and  _485
REMARK  202  A    between atoms: _485  and  _486
REMARK  203  A    between atoms: _486  and  _487
REMARK  204  A    between atoms: _496  and  _498
REMARK  205  A    between atoms: _498  and  _499
REMARK  206  A    between atoms: _498  and  _501
REMARK  207  A    between atoms: _501  and  _502
REMARK  208  A    between atoms: _505  and  _507
REMARK  209  A    between atoms: _507  and  _508
REMARK  210  A    between atoms: _507  and  _510
REMARK  211  A    between atoms: _510  and  _511
REMARK  212  A    between atoms: _513  and  _515
REMARK  213  A    between atoms: _515  and  _516
REMARK  214  A    between atoms: _515  and  _518
REMARK  215  A    between atoms: _518  and  _519
REMARK  216  A    between atoms: _519  and  _520
REMARK  217  A    between atoms: _520  and  _521
REMARK  218  A    between atoms: _521  and  _522
REMARK  219  A    between atoms: _526  and  _528
REMARK  220  A    between atoms: _528  and  _529
REMARK  221  A    between atoms: _528  and  _531
REMARK  222  A    between atoms: _531  and  _532
REMARK  223  A    between atoms: _535  and  _537
REMARK  224  A    between atoms: _537  and  _538
REMARK  225  A    between atoms: _540  and  _542
REMARK  226  A    between atoms: _542  and  _543
REMARK  227  A    between atoms: _542  and  _545
REMARK  228  A    between atoms: _545  and  _546
REMARK  229  A    between atoms: _548  and  _550
REMARK  230  A    between atoms: _550  and  _551
REMARK  231  A    between atoms: _553  and  _555
REMARK  232  A    between atoms: _555  and  _556
REMARK  233  A    between atoms: _555  and  _558
REMARK  234  A    between atoms: _558  and  _559
REMARK  235  A    between atoms: _564  and  _566
REMARK  236  A    between atoms: _566  and  _567
REMARK  237  A    between atoms: _566  and  _569
REMARK  238  A    between atoms: _569  and  _570
REMARK  239  A    between atoms: _573  and  _575
REMARK  240  A    between atoms: _575  and  _576
REMARK  241  A    between atoms: _575  and  _578
REMARK  242  A    between atoms: _578  and  _579
REMARK  243  A    between atoms: _585  and  _587
REMARK  244  A    between atoms: _587  and  _588
REMARK  245  A    between atoms: _587  and  _590
REMARK  246  A    between atoms: _590  and  _591
REMARK  247  A    between atoms: _591  and  _592
REMARK  248  A    between atoms: _595  and  _597
REMARK  249  A    between atoms: _597  and  _598
REMARK  250  A    between atoms: _597  and  _600
REMARK  251  A    between atoms: _600  and  _601
REMARK  252  A    between atoms: _601  and  _602
REMARK  253  A    between atoms: _602  and  _603
REMARK  254  A    between atoms: _612  and  _614
REMARK  255  A    between atoms: _614  and  _615
REMARK  256  A    between atoms: _614  and  _617
REMARK  257  A    between atoms: _617  and  _618
REMARK  258  A    between atoms: _618  and  _619
REMARK  259  A    between atoms: _619  and  _620
REMARK  260  A    between atoms: _629  and  _631
REMARK  261  A    between atoms: _631  and  _632
REMARK  262  A    between atoms: _631  and  _634
REMARK  263  A    between atoms: _634  and  _635
REMARK  264  A    between atoms: _640  and  _641
REMARK  265  A    between atoms: _643  and  _645
REMARK  266  A    between atoms: _645  and  _646
REMARK  267  A    between atoms: _645  and  _648
REMARK  268  A    between atoms: _648  and  _649
REMARK  269  A    between atoms: _652  and  _654
REMARK  270  A    between atoms: _654  and  _655
REMARK  271  A    between atoms: _654  and  _657
REMARK  272  A    between atoms: _657  and  _658
REMARK  273  A    between atoms: _658  and  _659
REMARK  274  A    between atoms: _659  and  _660
REMARK  275  A    between atoms: _660  and  _661
REMARK  276  A    between atoms: _665  and  _667
REMARK  277  A    between atoms: _667  and  _668
REMARK  278  A    between atoms: _667  and  _670
REMARK  279  A    between atoms: _670  and  _671
REMARK  280  A    between atoms: _676  and  _678
REMARK  281  A    between atoms: _678  and  _679
REMARK  282  A    between atoms: _678  and  _681
REMARK  283  A    between atoms: _681  and  _682
REMARK  284  A    between atoms: _692  and  _694
REMARK  285  A    between atoms: _694  and  _695
REMARK  286  A    between atoms: _694  and  _697
REMARK  287  A    between atoms: _697  and  _698
REMARK  288  A    between atoms: _698  and  _699
REMARK  289  A    between atoms: _702  and  _704
REMARK  290  A    between atoms: _704  and  _705
REMARK  291  A    between atoms: _704  and  _707
REMARK  292  A    between atoms: _707  and  _708
REMARK  293  A    between atoms: _711  and  _713
REMARK  294  A    between atoms: _713  and  _714
REMARK  295  A    between atoms: _713  and  _716
REMARK  296  A    between atoms: _716  and  _717
REMARK  297  A    between atoms: _722  and  _724
REMARK  298  A    between atoms: _724  and  _725
REMARK  299  A    between atoms: _724  and  _727
REMARK  300  A    between atoms: _727  and  _728
REMARK  301  A    between atoms: _734  and  _736
REMARK  302  A    between atoms: _736  and  _737
REMARK  303  A    between atoms: _736  and  _739
REMARK  304  A    between atoms: _739  and  _740
REMARK  305  A    between atoms: _742  and  _744
REMARK  306  A    between atoms: _744  and  _745
REMARK  307  A    between atoms: _747  and  _749
REMARK  308  A    between atoms: _749  and  _750
REMARK  309  A    between atoms: _749  and  _752
REMARK  310  A    between atoms: _752  and  _753
REMARK  311  A    between atoms: _758  and  _759
REMARK  312  A    between atoms: _761  and  _763
REMARK  313  A    between atoms: _763  and  _764
REMARK  314  A    between atoms: _763  and  _766
REMARK  315  A    between atoms: _766  and  _767
REMARK  316  A    between atoms: _772  and  _773
REMARK  317  A    between atoms: _775  and  _777
REMARK  318  A    between atoms: _777  and  _778
REMARK  319  A    between atoms: _777  and  _780
REMARK  320  A    between atoms: _780  and  _781
REMARK  321  A    between atoms: _785  and  ZN_876
REMARK  322  A    between atoms: _786  and  _788
REMARK  323  A    between atoms: _788  and  _789
REMARK  324  A    between atoms: _788  and  _791
REMARK  325  A    between atoms: _791  and  _792
REMARK  326  A    between atoms: _792  and  _793
REMARK  327  A    between atoms: _796  and  _798
REMARK  328  A    between atoms: _798  and  _799
REMARK  329  A    between atoms: _798  and  _801
REMARK  330  A    between atoms: _801  and  _802
REMARK  331  A    between atoms: _802  and  _803
REMARK  332  A    between atoms: _803  and  _804
REMARK  333  A    between atoms: _813  and  _815
REMARK  334  A    between atoms: _815  and  _816
REMARK  335  A    between atoms: _815  and  _818
REMARK  336  A    between atoms: _818  and  _819
REMARK  337  A    between atoms: _824  and  _825
REMARK  338  A    between atoms: _827  and  _829
REMARK  339  A    between atoms: _829  and  _830
REMARK  340  A    between atoms: _829  and  _832
REMARK  341  A    between atoms: _832  and  _833
REMARK  342  A    between atoms: _838  and  _840
REMARK  343  A    between atoms: _840  and  _841
REMARK  344  A    between atoms: _840  and  _843
REMARK  345  A    between atoms: _843  and  _844
REMARK  346  A    between atoms: _844  and  _845
REMARK  347  A    between atoms: _845  and  _846
REMARK  348  A    between atoms: _846  and  _847
REMARK  349  A    between atoms: _851  and  _853
REMARK  350  A    between atoms: _853  and  _854
REMARK  351  A    between atoms: _853  and  _856
REMARK  352  A    between atoms: _856  and  _857
REMARK  353  A    between atoms: _862  and  _863
REMARK  354  A    between atoms: _865  and  _867
REMARK  355  A    between atoms: _867  and  _868
REMARK  356  A    between atoms: _871  and  _873
REMARK  357  A    between atoms: _873  and  _874
REMARK                            x       y       z     vdW  Elec       q    Type
REMARK                         _______ _______ _______ _____ _____    ______ ____
ROOT
ATOM      1  O   HOH     1      14.388  38.041  34.755  0.00  0.00    +0.000 OA
ENDROOT
TORSDOF 0
REMARK  Name = ../refined-set-2016/2xei/2xei_pocket.pdb
REMARK  357 active torsions:
REMARK  status: ('A' for Active; 'I' for Inactive)
REMARK    1  A    between atoms: _1  and  _3
REMARK    2  A    between atoms: _3  and  _4
REMARK    3  A    between atoms: _7  and  _9
REMARK    4  A    between atoms: _9  and  _10
REMARK    5  A    between atoms: _9  and  _12
REMARK    6  A    between atoms: _12  and  _13
REMARK    7  A    between atoms: _19  and  _21
REMARK    8  A    between atoms: _21  and  _22
REMARK    9  A    between atoms: _24  and  _26
REMARK   10  A    between atoms: _26  and  _27
REMARK   11  A    between atoms: _26  and  _29
REMARK   12  A    between atoms: _29  and  _30
REMARK   13  A    between atoms: _30  and  _31
REMARK   14  A    between atoms: _31  and  _32
REMARK   15  A    between atoms: _32  and  _33
REMARK   16  A    between atoms: _37  and  _39
REMARK   17  A    between atoms: _39  and  _40
REMARK   18  A    between atoms: _39  and  _42
REMARK   19  A    between atoms: _45  and  _47
REMARK   20  A    between atoms: _47  and  _48
REMARK   21  A    between atoms: _47  and  _50
REMARK   22  A    between atoms: _50  and  _51
REMARK   23  A    between atoms: _57  and  _59
REMARK   24  A    between atoms: _59  and  _60
REMARK   25  A    between atoms: _59  and  _62
REMARK   26  A    between atoms: _62  and  _63
REMARK   27  A    between atoms: _63  and  _64
REMARK   28  A    between atoms: _64  and  _65
REMARK   29  A    between atoms: _74  and  _76
REMARK   30  A    between atoms: _76  and  _77
REMARK   31  A    between atoms: _79  and  _81
REMARK   32  A    between atoms: _81  and  _82
REMARK   33  A    between atoms: _81  and  _84
REMARK   34  A    between atoms: _84  and  _85
REMARK   35  A    between atoms: _90  and  _91
REMARK   36  A    between atoms: _93  and  _95
REMARK   37  A    between atoms: _95  and  _96
REMARK   38  A    between atoms: _95  and  _98
REMARK   39  A    between atoms: _98  and  _99
REMARK   40  A    between atoms: _99  and  _100
REMARK   41  A    between atoms: _105  and  _107
REMARK   42  A    between atoms: _107  and  _108
REMARK   43  A    between atoms: _107  and  _110
REMARK   44  A    between atoms: _110  and  _111
REMARK   45  A    between atoms: _111  and  _112
REMARK   46  A    between atoms: _112  and  _113
REMARK   47  A    between atoms: _122  and  _124
REMARK   48  A    between atoms: _124  and  _125
REMARK   49  A    between atoms: _127  and  _129
REMARK   50  A    between atoms: _129  and  _130
REMARK   51  A    between atoms: _129  and  _132
REMARK   52  A    between atoms: _132  and  _133
REMARK   53  A    between atoms: _138  and  _140
REMARK   54  A    between atoms: _140  and  _141
REMARK   55  A    between atoms: _140  and  _143
REMARK   56  A    between atoms: _143  and  _144
REMARK   57  A    between atoms: _147  and  _149
REMARK   58  A    between atoms: _149  and  _150
REMARK   59  A    between atoms: _149  and  _152
REMARK   60  A    between atoms: _152  and  _153
REMARK   61  A    between atoms: _156  and  _158
REMARK   62  A    between atoms: _158  and  _159
REMARK   63  A    between atoms: _158  and  _161
REMARK   64  A    between atoms: _161  and  _162
REMARK   65  A    between atoms: _167  and  _169
REMARK   66  A    between atoms: _169  and  _170
REMARK   67  A    between atoms: _169  and  _172
REMARK   68  A    between atoms: _172  and  _173
REMARK   69  A    between atoms: _176  and  _178
REMARK   70  A    between atoms: _178  and  _179
REMARK   71  A    between atoms: _178  and  _181
REMARK   72  A    between atoms: _181  and  _182
REMARK   73  A    between atoms: _187  and  _189
REMARK   74  A    between atoms: _189  and  _190
REMARK   75  A    between atoms: _192  and  _194
REMARK   76  A    between atoms: _194  and  _195
REMARK   77  A    between atoms: _194  and  _197
REMARK   78  A    between atoms: _197  and  _198
REMARK   79  A    between atoms: _202  and  ZN_877
REMARK   80  A    between atoms: _203  and  _205
REMARK   81  A    between atoms: _205  and  _206
REMARK   82  A    between atoms: _205  and  _208
REMARK   83  A    between atoms: _208  and  _209
REMARK   84  A    between atoms: _212  and  _214
REMARK   85  A    between atoms: _214  and  _215
REMARK   86  A    between atoms: _214  and  _217
REMARK   87  A    between atoms: _217  and  _218
REMARK   88  A    between atoms: _228  and  _230
REMARK   89  A    between atoms: _230  and  _231
REMARK   90  A    between atoms: _230  and  _233
REMARK   91  A    between atoms: _233  and  _234
REMARK   92  A    between atoms: _237  and  _239
REMARK   93  A    between atoms: _239  and  _240
REMARK   94  A    between atoms: _239  and  _242
REMARK   95  A    between atoms: _242  and  _243
REMARK   96  A    between atoms: _243  and  _244
REMARK   97  A    between atoms: _243  and  _245
REMARK   98  A    between atoms: _244  and  ZN_877
REMARK   99  A    between atoms: _245  and  ZN_876
REMARK  100  A    between atoms: _247  and  _248
REMARK  101  A    between atoms: _253  and  _255
REMARK  102  A    between atoms: _255  and  _256
REMARK  103  A    between atoms: _259  and  _261
REMARK  104  A    between atoms: _261  and  _262
REMARK  105  A    between atoms: _261  and  _264
REMARK  106  A    between atoms: _264  and  _265
REMARK  107  A    between atoms: _265  and  _266
REMARK  108  A    between atoms: _269  and  _271
REMARK  109  A    between atoms: _271  and  _272
REMARK  110  A    between atoms: _271  and  _274
REMARK  111  A    between atoms: _274  and  _275
REMARK  112  A    between atoms: _275  and  _276
REMARK  113  A    between atoms: _276  and  _278
REMARK  114  A    between atoms: _278  and  ZN_876
REMARK  115  A    between atoms: _279  and  _281
REMARK  116  A    between atoms: _281  and  _282
REMARK  117  A    between atoms: _281  and  _284
REMARK  118  A    between atoms: _284  and  _285
REMARK  119  A    between atoms: _291  and  _293
REMARK  120  A    between atoms: _293  and  _294
REMARK  121  A    between atoms: _296  and  _298
REMARK  122  A    between atoms: _298  and  _299
REMARK  123  A    between atoms: _298  and  _301
REMARK  124  A    between atoms: _301  and  _302
REMARK  125  A    between atoms: _305  and  _307
REMARK  126  A    between atoms: _307  and  _308
REMARK  127  A    between atoms: _307  and  _310
REMARK  128  A    between atoms: _310  and  _311
REMARK  129  A    between atoms: _314  and  _316
REMARK  130  A    between atoms: _316  and  _317
REMARK  131  A    between atoms: _316  and  _319
REMARK  132  A    between atoms: _319  and  _320
REMARK  133  A    between atoms: _325  and  _327
REMARK  134  A    between atoms: _327  and  _328
REMARK  135  A    between atoms: _327  and  _330
REMARK  136  A    between atoms: _330  and  _331
REMARK  137  A    between atoms: _331  and  _333
REMARK  138  A    between atoms: _333  and  ZN_877
REMARK  139  A    between atoms: _334  and  _336
REMARK  140  A    between atoms: _336  and  _337
REMARK  141  A    between atoms: _336  and  _339
REMARK  142  A    between atoms: _339  and  _340
REMARK  143  A    between atoms: _342  and  _344
REMARK  144  A    between atoms: _344  and  _345
REMARK  145  A    between atoms: _344  and  _347
REMARK  146  A    between atoms: _347  and  _348
REMARK  147  A    between atoms: _350  and  _352
REMARK  148  A    between atoms: _352  and  _353
REMARK  149  A    between atoms: _352  and  _355
REMARK  150  A    between atoms: _355  and  _356
REMARK  151  A    between atoms: _359  and  _361
REMARK  152  A    between atoms: _361  and  _362
REMARK  153  A    between atoms: _361  and  _364
REMARK  154  A    between atoms: _364  and  _365
REMARK  155  A    between atoms: _365  and  _366
REMARK  156  A    between atoms: _369  and  _371
REMARK  157  A    between atoms: _371  and  _372
REMARK  158  A    between atoms: _371  and  _374
REMARK  159  A    between atoms: _374  and  _375
REMARK  160  A    between atoms: _380  and  _381
REMARK  161  A    between atoms: _383  and  _385
REMARK  162  A    between atoms: _385  and  _386
REMARK  163  A    between atoms: _385  and  _388
REMARK  164  A    between atoms: _388  and  _389
REMARK  165  A    between atoms: _392  and  _394
REMARK  166  A    between atoms: _394  and  _395
REMARK  167  A    between atoms: _394  and  _397
REMARK  168  A    between atoms: _397  and  _398
REMARK  169  A    between atoms: _401  and  _403
REMARK  170  A    between atoms: _403  and  _404
REMARK  171  A    between atoms: _403  and  _406
REMARK  172  A    between atoms: _406  and  _407
REMARK  173  A    between atoms: _407  and  _408
REMARK  174  A    between atoms: _408  and  _409
REMARK  175  A    between atoms: _418  and  _420
REMARK  176  A    between atoms: _420  and  _421
REMARK  177  A    between atoms: _420  and  _423
REMARK  178  A    between atoms: _426  and  _428
REMARK  179  A    between atoms: _428  and  _429
REMARK  180  A    between atoms: _428  and  _431
REMARK  181  A    between atoms: _431  and  _432
REMARK  182  A    between atoms: _435  and  _437
REMARK  183  A    between atoms: _437  and  _438
REMARK  184  A    between atoms: _437  and  _440
REMARK  185  A    between atoms: _440  and  _441
REMARK  186  A    between atoms: _451  and  _453
REMARK  187  A    between atoms: _453  and  _454
REMARK  188  A    between atoms: _453  and  _456
REMARK  189  A    between atoms: _456  and  _457
REMARK  190  A    between atoms: _457  and  _458
REMARK  191  A    between atoms: _458  and  _459
REMARK  192  A    between atoms: _459  and  _460
REMARK  193  A    between atoms: _464  and  _466
REMARK  194  A    between atoms: _466  and  _467
REMARK  195  A    between atoms: _466  and  _469
REMARK  196  A    between atoms: _469  and  _470
REMARK  197  A    between atoms: _473  and  _474
REMARK  198  A    between atoms: _479  and  _481
REMARK  199  A    between atoms: _481  and  _482
REMARK  200  A    between atoms: _481  and  _484
REMARK  201  A    between atoms: _484  and  _485
REMARK  202  A    between atoms: _485  and  _486
REMARK  203  A    between atoms: _486  and  _487
REMARK  204  A    between atoms: _496  and  _498
REMARK  205  A    between atoms: _498  and  _499
REMARK  206  A    between atoms: _498  and  _501
REMARK  207  A    between atoms: _501  and  _502
REMARK  208  A    between atoms: _505  and  _507
REMARK  209  A    between atoms: _507  and  _508
REMARK  210  A    between atoms: _507  and  _510
REMARK  211  A    between atoms: _510  and  _511
REMARK  212  A    between atoms: _513  and  _515
REMARK  213  A    between atoms: _515  and  _516
REMARK  214  A    between atoms: _515  and  _518
REMARK  215  A    between atoms: _518  and  _519
REMARK  216  A    between atoms: _519  and  _520
REMARK  217  A    between atoms: _520  and  _521
REMARK  218  A    between atoms: _521  and  _522
REMARK  219  A    between atoms: _526  and  _528
REMARK  220  A    between atoms: _528  and  _529
REMARK  221  A    between atoms: _528  and  _531
REMARK  222  A    between atoms: _531  and  _532
REMARK  223  A    between atoms: _535  and  _537
REMARK  224  A    between atoms: _537  and  _538
REMARK  225  A    between atoms: _540  and  _542
REMARK  226  A    between atoms: _542  and  _543
REMARK  227  A    between atoms: _542  and  _545
REMARK  228  A    between atoms: _545  and  _546
REMARK  229  A    between atoms: _548  and  _550
REMARK  230  A    between atoms: _550  and  _551
REMARK  231  A    between atoms: _553  and  _555
REMARK  232  A    between atoms: _555  and  _556
REMARK  233  A    between atoms: _555  and  _558
REMARK  234  A    between atoms: _558  and  _559
REMARK  235  A    between atoms: _564  and  _566
REMARK  236  A    between atoms: _566  and  _567
REMARK  237  A    between atoms: _566  and  _569
REMARK  238  A    between atoms: _569  and  _570
REMARK  239  A    between atoms: _573  and  _575
REMARK  240  A    between atoms: _575  and  _576
REMARK  241  A    between atoms: _575  and  _578
REMARK  242  A    between atoms: _578  and  _579
REMARK  243  A    between atoms: _585  and  _587
REMARK  244  A    between atoms: _587  and  _588
REMARK  245  A    between atoms: _587  and  _590
REMARK  246  A    between atoms: _590  and  _591
REMARK  247  A    between atoms: _591  and  _592
REMARK  248  A    between atoms: _595  and  _597
REMARK  249  A    between atoms: _597  and  _598
REMARK  250  A    between atoms: _597  and  _600
REMARK  251  A    between atoms: _600  and  _601
REMARK  252  A    between atoms: _601  and  _602
REMARK  253  A    between atoms: _602  and  _603
REMARK  254  A    between atoms: _612  and  _614
REMARK  255  A    between atoms: _614  and  _615
REMARK  256  A    between atoms: _614  and  _617
REMARK  257  A    between atoms: _617  and  _618
REMARK  258  A    between atoms: _618  and  _619
REMARK  259  A    between atoms: _619  and  _620
REMARK  260  A    between atoms: _629  and  _631
REMARK  261  A    between atoms: _631  and  _632
REMARK  262  A    between atoms: _631  and  _634
REMARK  263  A    between atoms: _634  and  _635
REMARK  264  A    between atoms: _640  and  _641
REMARK  265  A    between atoms: _643  and  _645
REMARK  266  A    between atoms: _645  and  _646
REMARK  267  A    between atoms: _645  and  _648
REMARK  268  A    between atoms: _648  and  _649
REMARK  269  A    between atoms: _652  and  _654
REMARK  270  A    between atoms: _654  and  _655
REMARK  271  A    between atoms: _654  and  _657
REMARK  272  A    between atoms: _657  and  _658
REMARK  273  A    between atoms: _658  and  _659
REMARK  274  A    between atoms: _659  and  _660
REMARK  275  A    between atoms: _660  and  _661
REMARK  276  A    between atoms: _665  and  _667
REMARK  277  A    between atoms: _667  and  _668
REMARK  278  A    between atoms: _667  and  _670
REMARK  279  A    between atoms: _670  and  _671
REMARK  280  A    between atoms: _676  and  _678
REMARK  281  A    between atoms: _678  and  _679
REMARK  282  A    between atoms: _678  and  _681
REMARK  283  A    between atoms: _681  and  _682
REMARK  284  A    between atoms: _692  and  _694
REMARK  285  A    between atoms: _694  and  _695
REMARK  286  A    between atoms: _694  and  _697
REMARK  287  A    between atoms: _697  and  _698
REMARK  288  A    between atoms: _698  and  _699
REMARK  289  A    between atoms: _702  and  _704
REMARK  290  A    between atoms: _704  and  _705
REMARK  291  A    between atoms: _704  and  _707
REMARK  292  A    between atoms: _707  and  _708
REMARK  293  A    between atoms: _711  and  _713
REMARK  294  A    between atoms: _713  and  _714
REMARK  295  A    between atoms: _713  and  _716
REMARK  296  A    between atoms: _716  and  _717
REMARK  297  A    between atoms: _722  and  _724
REMARK  298  A    between atoms: _724  and  _725
REMARK  299  A    between atoms: _724  and  _727
REMARK  300  A    between atoms: _727  and  _728
REMARK  301  A    between atoms: _734  and  _736
REMARK  302  A    between atoms: _736  and  _737
REMARK  303  A    between atoms: _736  and  _739
REMARK  304  A    between atoms: _739  and  _740
REMARK  305  A    between atoms: _742  and  _744
REMARK  306  A    between atoms: _744  and  _745
REMARK  307  A    between atoms: _747  and  _749
REMARK  308  A    between atoms: _749  and  _750
REMARK  309  A    between atoms: _749  and  _752
REMARK  310  A    between atoms: _752  and  _753
REMARK  311  A    between atoms: _758  and  _759
REMARK  312  A    between atoms: _761  and  _763
REMARK  313  A    between atoms: _763  and  _764
REMARK  314  A    between atoms: _763  and  _766
REMARK  315  A    between atoms: _766  and  _767
REMARK  316  A    between atoms: _772  and  _773
REMARK  317  A    between atoms: _775  and  _777
REMARK  318  A    between atoms: _777  and  _778
REMARK  319  A    between atoms: _777  and  _780
REMARK  320  A    between atoms: _780  and  _781
REMARK  321  A    between atoms: _785  and  ZN_876
REMARK  322  A    between atoms: _786  and  _788
REMARK  323  A    between atoms: _788  and  _789
REMARK  324  A    between atoms: _788  and  _791
REMARK  325  A    between atoms: _791  and  _792
REMARK  326  A    between atoms: _792  and  _793
REMARK  327  A    between atoms: _796  and  _798
REMARK  328  A    between atoms: _798  and  _799
REMARK  329  A    between atoms: _798  and  _801
REMARK  330  A    between atoms: _801  and  _802
REMARK  331  A    between atoms: _802  and  _803
REMARK  332  A    between atoms: _803  and  _804
REMARK  333  A    between atoms: _813  and  _815
REMARK  334  A    between atoms: _815  and  _816
REMARK  335  A    between atoms: _815  and  _818
REMARK  336  A    between atoms: _818  and  _819
REMARK  337  A    between atoms: _824  and  _825
REMARK  338  A    between atoms: _827  and  _829
REMARK  339  A    between atoms: _829  and  _830
REMARK  340  A    between atoms: _829  and  _832
REMARK  341  A    between atoms: _832  and  _833
REMARK  342  A    between atoms: _838  and  _840
REMARK  343  A    between atoms: _840  and  _841
REMARK  344  A    between atoms: _840  and  _843
REMARK  345  A    between atoms: _843  and  _844
REMARK  346  A    between atoms: _844  and  _845
REMARK  347  A    between atoms: _845  and  _846
REMARK  348  A    between atoms: _846  and  _847
REMARK  349  A    between atoms: _851  and  _853
REMARK  350  A    between atoms: _853  and  _854
REMARK  351  A    between atoms: _853  and  _856
REMARK  352  A    between atoms: _856  and  _857
REMARK  353  A    between atoms: _862  and  _863
REMARK  354  A    between atoms: _865  and  _867
REMARK  355  A    between atoms: _867  and  _868
REMARK  356  A    between atoms: _871  and  _873
REMARK  357  A    between atoms: _873  and  _874
REMARK                            x       y       z     vdW  Elec       q    Type
REMARK                         _______ _______ _______ _____ _____    ______ ____
ROOT
ATOM      1  O   HOH     1      17.769  40.503  32.114  0.00  0.00    +0.000 OA
ENDROOT
TORSDOF 0
REMARK  Name = ../refined-set-2016/2xei/2xei_pocket.pdb
REMARK  357 active torsions:
REMARK  status: ('A' for Active; 'I' for Inactive)
REMARK    1  A    between atoms: _1  and  _3
REMARK    2  A    between atoms: _3  and  _4
REMARK    3  A    between atoms: _7  and  _9
REMARK    4  A    between atoms: _9  and  _10
REMARK    5  A    between atoms: _9  and  _12
REMARK    6  A    between atoms: _12  and  _13
REMARK    7  A    between atoms: _19  and  _21
REMARK    8  A    between atoms: _21  and  _22
REMARK    9  A    between atoms: _24  and  _26
REMARK   10  A    between atoms: _26  and  _27
REMARK   11  A    between atoms: _26  and  _29
REMARK   12  A    between atoms: _29  and  _30
REMARK   13  A    between atoms: _30  and  _31
REMARK   14  A    between atoms: _31  and  _32
REMARK   15  A    between atoms: _32  and  _33
REMARK   16  A    between atoms: _37  and  _39
REMARK   17  A    between atoms: _39  and  _40
REMARK   18  A    between atoms: _39  and  _42
REMARK   19  A    between atoms: _45  and  _47
REMARK   20  A    between atoms: _47  and  _48
REMARK   21  A    between atoms: _47  and  _50
REMARK   22  A    between atoms: _50  and  _51
REMARK   23  A    between atoms: _57  and  _59
REMARK   24  A    between atoms: _59  and  _60
REMARK   25  A    between atoms: _59  and  _62
REMARK   26  A    between atoms: _62  and  _63
REMARK   27  A    between atoms: _63  and  _64
REMARK   28  A    between atoms: _64  and  _65
REMARK   29  A    between atoms: _74  and  _76
REMARK   30  A    between atoms: _76  and  _77
REMARK   31  A    between atoms: _79  and  _81
REMARK   32  A    between atoms: _81  and  _82
REMARK   33  A    between atoms: _81  and  _84
REMARK   34  A    between atoms: _84  and  _85
REMARK   35  A    between atoms: _90  and  _91
REMARK   36  A    between atoms: _93  and  _95
REMARK   37  A    between atoms: _95  and  _96
REMARK   38  A    between atoms: _95  and  _98
REMARK   39  A    between atoms: _98  and  _99
REMARK   40  A    between atoms: _99  and  _100
REMARK   41  A    between atoms: _105  and  _107
REMARK   42  A    between atoms: _107  and  _108
REMARK   43  A    between atoms: _107  and  _110
REMARK   44  A    between atoms: _110  and  _111
REMARK   45  A    between atoms: _111  and  _112
REMARK   46  A    between atoms: _112  and  _113
REMARK   47  A    between atoms: _122  and  _124
REMARK   48  A    between atoms: _124  and  _125
REMARK   49  A    between atoms: _127  and  _129
REMARK   50  A    between atoms: _129  and  _130
REMARK   51  A    between atoms: _129  and  _132
REMARK   52  A    between atoms: _132  and  _133
REMARK   53  A    between atoms: _138  and  _140
REMARK   54  A    between atoms: _140  and  _141
REMARK   55  A    between atoms: _140  and  _143
REMARK   56  A    between atoms: _143  and  _144
REMARK   57  A    between atoms: _147  and  _149
REMARK   58  A    between atoms: _149  and  _150
REMARK   59  A    between atoms: _149  and  _152
REMARK   60  A    between atoms: _152  and  _153
REMARK   61  A    between atoms: _156  and  _158
REMARK   62  A    between atoms: _158  and  _159
REMARK   63  A    between atoms: _158  and  _161
REMARK   64  A    between atoms: _161  and  _162
REMARK   65  A    between atoms: _167  and  _169
REMARK   66  A    between atoms: _169  and  _170
REMARK   67  A    between atoms: _169  and  _172
REMARK   68  A    between atoms: _172  and  _173
REMARK   69  A    between atoms: _176  and  _178
REMARK   70  A    between atoms: _178  and  _179
REMARK   71  A    between atoms: _178  and  _181
REMARK   72  A    between atoms: _181  and  _182
REMARK   73  A    between atoms: _187  and  _189
REMARK   74  A    between atoms: _189  and  _190
REMARK   75  A    between atoms: _192  and  _194
REMARK   76  A    between atoms: _194  and  _195
REMARK   77  A    between atoms: _194  and  _197
REMARK   78  A    between atoms: _197  and  _198
REMARK   79  A    between atoms: _202  and  ZN_877
REMARK   80  A    between atoms: _203  and  _205
REMARK   81  A    between atoms: _205  and  _206
REMARK   82  A    between atoms: _205  and  _208
REMARK   83  A    between atoms: _208  and  _209
REMARK   84  A    between atoms: _212  and  _214
REMARK   85  A    between atoms: _214  and  _215
REMARK   86  A    between atoms: _214  and  _217
REMARK   87  A    between atoms: _217  and  _218
REMARK   88  A    between atoms: _228  and  _230
REMARK   89  A    between atoms: _230  and  _231
REMARK   90  A    between atoms: _230  and  _233
REMARK   91  A    between atoms: _233  and  _234
REMARK   92  A    between atoms: _237  and  _239
REMARK   93  A    between atoms: _239  and  _240
REMARK   94  A    between atoms: _239  and  _242
REMARK   95  A    between atoms: _242  and  _243
REMARK   96  A    between atoms: _243  and  _244
REMARK   97  A    between atoms: _243  and  _245
REMARK   98  A    between atoms: _244  and  ZN_877
REMARK   99  A    between atoms: _245  and  ZN_876
REMARK  100  A    between atoms: _247  and  _248
REMARK  101  A    between atoms: _253  and  _255
REMARK  102  A    between atoms: _255  and  _256
REMARK  103  A    between atoms: _259  and  _261
REMARK  104  A    between atoms: _261  and  _262
REMARK  105  A    between atoms: _261  and  _264
REMARK  106  A    between atoms: _264  and  _265
REMARK  107  A    between atoms: _265  and  _266
REMARK  108  A    between atoms: _269  and  _271
REMARK  109  A    between atoms: _271  and  _272
REMARK  110  A    between atoms: _271  and  _274
REMARK  111  A    between atoms: _274  and  _275
REMARK  112  A    between atoms: _275  and  _276
REMARK  113  A    between atoms: _276  and  _278
REMARK  114  A    between atoms: _278  and  ZN_876
REMARK  115  A    between atoms: _279  and  _281
REMARK  116  A    between atoms: _281  and  _282
REMARK  117  A    between atoms: _281  and  _284
REMARK  118  A    between atoms: _284  and  _285
REMARK  119  A    between atoms: _291  and  _293
REMARK  120  A    between atoms: _293  and  _294
REMARK  121  A    between atoms: _296  and  _298
REMARK  122  A    between atoms: _298  and  _299
REMARK  123  A    between atoms: _298  and  _301
REMARK  124  A    between atoms: _301  and  _302
REMARK  125  A    between atoms: _305  and  _307
REMARK  126  A    between atoms: _307  and  _308
REMARK  127  A    between atoms: _307  and  _310
REMARK  128  A    between atoms: _310  and  _311
REMARK  129  A    between atoms: _314  and  _316
REMARK  130  A    between atoms: _316  and  _317
REMARK  131  A    between atoms: _316  and  _319
REMARK  132  A    between atoms: _319  and  _320
REMARK  133  A    between atoms: _325  and  _327
REMARK  134  A    between atoms: _327  and  _328
REMARK  135  A    between atoms: _327  and  _330
REMARK  136  A    between atoms: _330  and  _331
REMARK  137  A    between atoms: _331  and  _333
REMARK  138  A    between atoms: _333  and  ZN_877
REMARK  139  A    between atoms: _334  and  _336
REMARK  140  A    between atoms: _336  and  _337
REMARK  141  A    between atoms: _336  and  _339
REMARK  142  A    between atoms: _339  and  _340
REMARK  143  A    between atoms: _342  and  _344
REMARK  144  A    between atoms: _344  and  _345
REMARK  145  A    between atoms: _344  and  _347
REMARK  146  A    between atoms: _347  and  _348
REMARK  147  A    between atoms: _350  and  _352
REMARK  148  A    between atoms: _352  and  _353
REMARK  149  A    between atoms: _352  and  _355
REMARK  150  A    between atoms: _355  and  _356
REMARK  151  A    between atoms: _359  and  _361
REMARK  152  A    between atoms: _361  and  _362
REMARK  153  A    between atoms: _361  and  _364
REMARK  154  A    between atoms: _364  and  _365
REMARK  155  A    between atoms: _365  and  _366
REMARK  156  A    between atoms: _369  and  _371
REMARK  157  A    between atoms: _371  and  _372
REMARK  158  A    between atoms: _371  and  _374
REMARK  159  A    between atoms: _374  and  _375
REMARK  160  A    between atoms: _380  and  _381
REMARK  161  A    between atoms: _383  and  _385
REMARK  162  A    between atoms: _385  and  _386
REMARK  163  A    between atoms: _385  and  _388
REMARK  164  A    between atoms: _388  and  _389
REMARK  165  A    between atoms: _392  and  _394
REMARK  166  A    between atoms: _394  and  _395
REMARK  167  A    between atoms: _394  and  _397
REMARK  168  A    between atoms: _397  and  _398
REMARK  169  A    between atoms: _401  and  _403
REMARK  170  A    between atoms: _403  and  _404
REMARK  171  A    between atoms: _403  and  _406
REMARK  172  A    between atoms: _406  and  _407
REMARK  173  A    between atoms: _407  and  _408
REMARK  174  A    between atoms: _408  and  _409
REMARK  175  A    between atoms: _418  and  _420
REMARK  176  A    between atoms: _420  and  _421
REMARK  177  A    between atoms: _420  and  _423
REMARK  178  A    between atoms: _426  and  _428
REMARK  179  A    between atoms: _428  and  _429
REMARK  180  A    between atoms: _428  and  _431
REMARK  181  A    between atoms: _431  and  _432
REMARK  182  A    between atoms: _435  and  _437
REMARK  183  A    between atoms: _437  and  _438
REMARK  184  A    between atoms: _437  and  _440
REMARK  185  A    between atoms: _440  and  _441
REMARK  186  A    between atoms: _451  and  _453
REMARK  187  A    between atoms: _453  and  _454
REMARK  188  A    between atoms: _453  and  _456
REMARK  189  A    between atoms: _456  and  _457
REMARK  190  A    between atoms: _457  and  _458
REMARK  191  A    between atoms: _458  and  _459
REMARK  192  A    between atoms: _459  and  _460
REMARK  193  A    between atoms: _464  and  _466
REMARK  194  A    between atoms: _466  and  _467
REMARK  195  A    between atoms: _466  and  _469
REMARK  196  A    between atoms: _469  and  _470
REMARK  197  A    between atoms: _473  and  _474
REMARK  198  A    between atoms: _479  and  _481
REMARK  199  A    between atoms: _481  and  _482
REMARK  200  A    between atoms: _481  and  _484
REMARK  201  A    between atoms: _484  and  _485
REMARK  202  A    between atoms: _485  and  _486
REMARK  203  A    between atoms: _486  and  _487
REMARK  204  A    between atoms: _496  and  _498
REMARK  205  A    between atoms: _498  and  _499
REMARK  206  A    between atoms: _498  and  _501
REMARK  207  A    between atoms: _501  and  _502
REMARK  208  A    between atoms: _505  and  _507
REMARK  209  A    between atoms: _507  and  _508
REMARK  210  A    between atoms: _507  and  _510
REMARK  211  A    between atoms: _510  and  _511
REMARK  212  A    between atoms: _513  and  _515
REMARK  213  A    between atoms: _515  and  _516
REMARK  214  A    between atoms: _515  and  _518
REMARK  215  A    between atoms: _518  and  _519
REMARK  216  A    between atoms: _519  and  _520
REMARK  217  A    between atoms: _520  and  _521
REMARK  218  A    between atoms: _521  and  _522
REMARK  219  A    between atoms: _526  and  _528
REMARK  220  A    between atoms: _528  and  _529
REMARK  221  A    between atoms: _528  and  _531
REMARK  222  A    between atoms: _531  and  _532
REMARK  223  A    between atoms: _535  and  _537
REMARK  224  A    between atoms: _537  and  _538
REMARK  225  A    between atoms: _540  and  _542
REMARK  226  A    between atoms: _542  and  _543
REMARK  227  A    between atoms: _542  and  _545
REMARK  228  A    between atoms: _545  and  _546
REMARK  229  A    between atoms: _548  and  _550
REMARK  230  A    between atoms: _550  and  _551
REMARK  231  A    between atoms: _553  and  _555
REMARK  232  A    between atoms: _555  and  _556
REMARK  233  A    between atoms: _555  and  _558
REMARK  234  A    between atoms: _558  and  _559
REMARK  235  A    between atoms: _564  and  _566
REMARK  236  A    between atoms: _566  and  _567
REMARK  237  A    between atoms: _566  and  _569
REMARK  238  A    between atoms: _569  and  _570
REMARK  239  A    between atoms: _573  and  _575
REMARK  240  A    between atoms: _575  and  _576
REMARK  241  A    between atoms: _575  and  _578
REMARK  242  A    between atoms: _578  and  _579
REMARK  243  A    between atoms: _585  and  _587
REMARK  244  A    between atoms: _587  and  _588
REMARK  245  A    between atoms: _587  and  _590
REMARK  246  A    between atoms: _590  and  _591
REMARK  247  A    between atoms: _591  and  _592
REMARK  248  A    between atoms: _595  and  _597
REMARK  249  A    between atoms: _597  and  _598
REMARK  250  A    between atoms: _597  and  _600
REMARK  251  A    between atoms: _600  and  _601
REMARK  252  A    between atoms: _601  and  _602
REMARK  253  A    between atoms: _602  and  _603
REMARK  254  A    between atoms: _612  and  _614
REMARK  255  A    between atoms: _614  and  _615
REMARK  256  A    between atoms: _614  and  _617
REMARK  257  A    between atoms: _617  and  _618
REMARK  258  A    between atoms: _618  and  _619
REMARK  259  A    between atoms: _619  and  _620
REMARK  260  A    between atoms: _629  and  _631
REMARK  261  A    between atoms: _631  and  _632
REMARK  262  A    between atoms: _631  and  _634
REMARK  263  A    between atoms: _634  and  _635
REMARK  264  A    between atoms: _640  and  _641
REMARK  265  A    between atoms: _643  and  _645
REMARK  266  A    between atoms: _645  and  _646
REMARK  267  A    between atoms: _645  and  _648
REMARK  268  A    between atoms: _648  and  _649
REMARK  269  A    between atoms: _652  and  _654
REMARK  270  A    between atoms: _654  and  _655
REMARK  271  A    between atoms: _654  and  _657
REMARK  272  A    between atoms: _657  and  _658
REMARK  273  A    between atoms: _658  and  _659
REMARK  274  A    between atoms: _659  and  _660
REMARK  275  A    between atoms: _660  and  _661
REMARK  276  A    between atoms: _665  and  _667
REMARK  277  A    between atoms: _667  and  _668
REMARK  278  A    between atoms: _667  and  _670
REMARK  279  A    between atoms: _670  and  _671
REMARK  280  A    between atoms: _676  and  _678
REMARK  281  A    between atoms: _678  and  _679
REMARK  282  A    between atoms: _678  and  _681
REMARK  283  A    between atoms: _681  and  _682
REMARK  284  A    between atoms: _692  and  _694
REMARK  285  A    between atoms: _694  and  _695
REMARK  286  A    between atoms: _694  and  _697
REMARK  287  A    between atoms: _697  and  _698
REMARK  288  A    between atoms: _698  and  _699
REMARK  289  A    between atoms: _702  and  _704
REMARK  290  A    between atoms: _704  and  _705
REMARK  291  A    between atoms: _704  and  _707
REMARK  292  A    between atoms: _707  and  _708
REMARK  293  A    between atoms: _711  and  _713
REMARK  294  A    between atoms: _713  and  _714
REMARK  295  A    between atoms: _713  and  _716
REMARK  296  A    between atoms: _716  and  _717
REMARK  297  A    between atoms: _722  and  _724
REMARK  298  A    between atoms: _724  and  _725
REMARK  299  A    between atoms: _724  and  _727
REMARK  300  A    between atoms: _727  and  _728
REMARK  301  A    between atoms: _734  and  _736
REMARK  302  A    between atoms: _736  and  _737
REMARK  303  A    between atoms: _736  and  _739
REMARK  304  A    between atoms: _739  and  _740
REMARK  305  A    between atoms: _742  and  _744
REMARK  306  A    between atoms: _744  and  _745
REMARK  307  A    between atoms: _747  and  _749
REMARK  308  A    between atoms: _749  and  _750
REMARK  309  A    between atoms: _749  and  _752
REMARK  310  A    between atoms: _752  and  _753
REMARK  311  A    between atoms: _758  and  _759
REMARK  312  A    between atoms: _761  and  _763
REMARK  313  A    between atoms: _763  and  _764
REMARK  314  A    between atoms: _763  and  _766
REMARK  315  A    between atoms: _766  and  _767
REMARK  316  A    between atoms: _772  and  _773
REMARK  317  A    between atoms: _775  and  _777
REMARK  318  A    between atoms: _777  and  _778
REMARK  319  A    between atoms: _777  and  _780
REMARK  320  A    between atoms: _780  and  _781
REMARK  321  A    between atoms: _785  and  ZN_876
REMARK  322  A    between atoms: _786  and  _788
REMARK  323  A    between atoms: _788  and  _789
REMARK  324  A    between atoms: _788  and  _791
REMARK  325  A    between atoms: _791  and  _792
REMARK  326  A    between atoms: _792  and  _793
REMARK  327  A    between atoms: _796  and  _798
REMARK  328  A    between atoms: _798  and  _799
REMARK  329  A    between atoms: _798  and  _801
REMARK  330  A    between atoms: _801  and  _802
REMARK  331  A    between atoms: _802  and  _803
REMARK  332  A    between atoms: _803  and  _804
REMARK  333  A    between atoms: _813  and  _815
REMARK  334  A    between atoms: _815  and  _816
REMARK  335  A    between atoms: _815  and  _818
REMARK  336  A    between atoms: _818  and  _819
REMARK  337  A    between atoms: _824  and  _825
REMARK  338  A    between atoms: _827  and  _829
REMARK  339  A    between atoms: _829  and  _830
REMARK  340  A    between atoms: _829  and  _832
REMARK  341  A    between atoms: _832  and  _833
REMARK  342  A    between atoms: _838  and  _840
REMARK  343  A    between atoms: _840  and  _841
REMARK  344  A    between atoms: _840  and  _843
REMARK  345  A    between atoms: _843  and  _844
REMARK  346  A    between atoms: _844  and  _845
REMARK  347  A    between atoms: _845  and  _846
REMARK  348  A    between atoms: _846  and  _847
REMARK  349  A    between atoms: _851  and  _853
REMARK  350  A    between atoms: _853  and  _854
REMARK  351  A    between atoms: _853  and  _856
REMARK  352  A    between atoms: _856  and  _857
REMARK  353  A    between atoms: _862  and  _863
REMARK  354  A    between atoms: _865  and  _867
REMARK  355  A    between atoms: _867  and  _868
REMARK  356  A    between atoms: _871  and  _873
REMARK  357  A    between atoms: _873  and  _874
REMARK                            x       y       z     vdW  Elec       q    Type
REMARK                         _______ _______ _______ _____ _____    ______ ____
ROOT
ATOM      1  O   HOH     1      23.798  46.007  34.471  0.00  0.00    +0.000 OA
ENDROOT
TORSDOF 0
REMARK  Name = ../refined-set-2016/2xei/2xei_pocket.pdb
REMARK  357 active torsions:
REMARK  status: ('A' for Active; 'I' for Inactive)
REMARK    1  A    between atoms: _1  and  _3
REMARK    2  A    between atoms: _3  and  _4
REMARK    3  A    between atoms: _7  and  _9
REMARK    4  A    between atoms: _9  and  _10
REMARK    5  A    between atoms: _9  and  _12
REMARK    6  A    between atoms: _12  and  _13
REMARK    7  A    between atoms: _19  and  _21
REMARK    8  A    between atoms: _21  and  _22
REMARK    9  A    between atoms: _24  and  _26
REMARK   10  A    between atoms: _26  and  _27
REMARK   11  A    between atoms: _26  and  _29
REMARK   12  A    between atoms: _29  and  _30
REMARK   13  A    between atoms: _30  and  _31
REMARK   14  A    between atoms: _31  and  _32
REMARK   15  A    between atoms: _32  and  _33
REMARK   16  A    between atoms: _37  and  _39
REMARK   17  A    between atoms: _39  and  _40
REMARK   18  A    between atoms: _39  and  _42
REMARK   19  A    between atoms: _45  and  _47
REMARK   20  A    between atoms: _47  and  _48
REMARK   21  A    between atoms: _47  and  _50
REMARK   22  A    between atoms: _50  and  _51
REMARK   23  A    between atoms: _57  and  _59
REMARK   24  A    between atoms: _59  and  _60
REMARK   25  A    between atoms: _59  and  _62
REMARK   26  A    between atoms: _62  and  _63
REMARK   27  A    between atoms: _63  and  _64
REMARK   28  A    between atoms: _64  and  _65
REMARK   29  A    between atoms: _74  and  _76
REMARK   30  A    between atoms: _76  and  _77
REMARK   31  A    between atoms: _79  and  _81
REMARK   32  A    between atoms: _81  and  _82
REMARK   33  A    between atoms: _81  and  _84
REMARK   34  A    between atoms: _84  and  _85
REMARK   35  A    between atoms: _90  and  _91
REMARK   36  A    between atoms: _93  and  _95
REMARK   37  A    between atoms: _95  and  _96
REMARK   38  A    between atoms: _95  and  _98
REMARK   39  A    between atoms: _98  and  _99
REMARK   40  A    between atoms: _99  and  _100
REMARK   41  A    between atoms: _105  and  _107
REMARK   42  A    between atoms: _107  and  _108
REMARK   43  A    between atoms: _107  and  _110
REMARK   44  A    between atoms: _110  and  _111
REMARK   45  A    between atoms: _111  and  _112
REMARK   46  A    between atoms: _112  and  _113
REMARK   47  A    between atoms: _122  and  _124
REMARK   48  A    between atoms: _124  and  _125
REMARK   49  A    between atoms: _127  and  _129
REMARK   50  A    between atoms: _129  and  _130
REMARK   51  A    between atoms: _129  and  _132
REMARK   52  A    between atoms: _132  and  _133
REMARK   53  A    between atoms: _138  and  _140
REMARK   54  A    between atoms: _140  and  _141
REMARK   55  A    between atoms: _140  and  _143
REMARK   56  A    between atoms: _143  and  _144
REMARK   57  A    between atoms: _147  and  _149
REMARK   58  A    between atoms: _149  and  _150
REMARK   59  A    between atoms: _149  and  _152
REMARK   60  A    between atoms: _152  and  _153
REMARK   61  A    between atoms: _156  and  _158
REMARK   62  A    between atoms: _158  and  _159
REMARK   63  A    between atoms: _158  and  _161
REMARK   64  A    between atoms: _161  and  _162
REMARK   65  A    between atoms: _167  and  _169
REMARK   66  A    between atoms: _169  and  _170
REMARK   67  A    between atoms: _169  and  _172
REMARK   68  A    between atoms: _172  and  _173
REMARK   69  A    between atoms: _176  and  _178
REMARK   70  A    between atoms: _178  and  _179
REMARK   71  A    between atoms: _178  and  _181
REMARK   72  A    between atoms: _181  and  _182
REMARK   73  A    between atoms: _187  and  _189
REMARK   74  A    between atoms: _189  and  _190
REMARK   75  A    between atoms: _192  and  _194
REMARK   76  A    between atoms: _194  and  _195
REMARK   77  A    between atoms: _194  and  _197
REMARK   78  A    between atoms: _197  and  _198
REMARK   79  A    between atoms: _202  and  ZN_877
REMARK   80  A    between atoms: _203  and  _205
REMARK   81  A    between atoms: _205  and  _206
REMARK   82  A    between atoms: _205  and  _208
REMARK   83  A    between atoms: _208  and  _209
REMARK   84  A    between atoms: _212  and  _214
REMARK   85  A    between atoms: _214  and  _215
REMARK   86  A    between atoms: _214  and  _217
REMARK   87  A    between atoms: _217  and  _218
REMARK   88  A    between atoms: _228  and  _230
REMARK   89  A    between atoms: _230  and  _231
REMARK   90  A    between atoms: _230  and  _233
REMARK   91  A    between atoms: _233  and  _234
REMARK   92  A    between atoms: _237  and  _239
REMARK   93  A    between atoms: _239  and  _240
REMARK   94  A    between atoms: _239  and  _242
REMARK   95  A    between atoms: _242  and  _243
REMARK   96  A    between atoms: _243  and  _244
REMARK   97  A    between atoms: _243  and  _245
REMARK   98  A    between atoms: _244  and  ZN_877
REMARK   99  A    between atoms: _245  and  ZN_876
REMARK  100  A    between atoms: _247  and  _248
REMARK  101  A    between atoms: _253  and  _255
REMARK  102  A    between atoms: _255  and  _256
REMARK  103  A    between atoms: _259  and  _261
REMARK  104  A    between atoms: _261  and  _262
REMARK  105  A    between atoms: _261  and  _264
REMARK  106  A    between atoms: _264  and  _265
REMARK  107  A    between atoms: _265  and  _266
REMARK  108  A    between atoms: _269  and  _271
REMARK  109  A    between atoms: _271  and  _272
REMARK  110  A    between atoms: _271  and  _274
REMARK  111  A    between atoms: _274  and  _275
REMARK  112  A    between atoms: _275  and  _276
REMARK  113  A    between atoms: _276  and  _278
REMARK  114  A    between atoms: _278  and  ZN_876
REMARK  115  A    between atoms: _279  and  _281
REMARK  116  A    between atoms: _281  and  _282
REMARK  117  A    between atoms: _281  and  _284
REMARK  118  A    between atoms: _284  and  _285
REMARK  119  A    between atoms: _291  and  _293
REMARK  120  A    between atoms: _293  and  _294
REMARK  121  A    between atoms: _296  and  _298
REMARK  122  A    between atoms: _298  and  _299
REMARK  123  A    between atoms: _298  and  _301
REMARK  124  A    between atoms: _301  and  _302
REMARK  125  A    between atoms: _305  and  _307
REMARK  126  A    between atoms: _307  and  _308
REMARK  127  A    between atoms: _307  and  _310
REMARK  128  A    between atoms: _310  and  _311
REMARK  129  A    between atoms: _314  and  _316
REMARK  130  A    between atoms: _316  and  _317
REMARK  131  A    between atoms: _316  and  _319
REMARK  132  A    between atoms: _319  and  _320
REMARK  133  A    between atoms: _325  and  _327
REMARK  134  A    between atoms: _327  and  _328
REMARK  135  A    between atoms: _327  and  _330
REMARK  136  A    between atoms: _330  and  _331
REMARK  137  A    between atoms: _331  and  _333
REMARK  138  A    between atoms: _333  and  ZN_877
REMARK  139  A    between atoms: _334  and  _336
REMARK  140  A    between atoms: _336  and  _337
REMARK  141  A    between atoms: _336  and  _339
REMARK  142  A    between atoms: _339  and  _340
REMARK  143  A    between atoms: _342  and  _344
REMARK  144  A    between atoms: _344  and  _345
REMARK  145  A    between atoms: _344  and  _347
REMARK  146  A    between atoms: _347  and  _348
REMARK  147  A    between atoms: _350  and  _352
REMARK  148  A    between atoms: _352  and  _353
REMARK  149  A    between atoms: _352  and  _355
REMARK  150  A    between atoms: _355  and  _356
REMARK  151  A    between atoms: _359  and  _361
REMARK  152  A    between atoms: _361  and  _362
REMARK  153  A    between atoms: _361  and  _364
REMARK  154  A    between atoms: _364  and  _365
REMARK  155  A    between atoms: _365  and  _366
REMARK  156  A    between atoms: _369  and  _371
REMARK  157  A    between atoms: _371  and  _372
REMARK  158  A    between atoms: _371  and  _374
REMARK  159  A    between atoms: _374  and  _375
REMARK  160  A    between atoms: _380  and  _381
REMARK  161  A    between atoms: _383  and  _385
REMARK  162  A    between atoms: _385  and  _386
REMARK  163  A    between atoms: _385  and  _388
REMARK  164  A    between atoms: _388  and  _389
REMARK  165  A    between atoms: _392  and  _394
REMARK  166  A    between atoms: _394  and  _395
REMARK  167  A    between atoms: _394  and  _397
REMARK  168  A    between atoms: _397  and  _398
REMARK  169  A    between atoms: _401  and  _403
REMARK  170  A    between atoms: _403  and  _404
REMARK  171  A    between atoms: _403  and  _406
REMARK  172  A    between atoms: _406  and  _407
REMARK  173  A    between atoms: _407  and  _408
REMARK  174  A    between atoms: _408  and  _409
REMARK  175  A    between atoms: _418  and  _420
REMARK  176  A    between atoms: _420  and  _421
REMARK  177  A    between atoms: _420  and  _423
REMARK  178  A    between atoms: _426  and  _428
REMARK  179  A    between atoms: _428  and  _429
REMARK  180  A    between atoms: _428  and  _431
REMARK  181  A    between atoms: _431  and  _432
REMARK  182  A    between atoms: _435  and  _437
REMARK  183  A    between atoms: _437  and  _438
REMARK  184  A    between atoms: _437  and  _440
REMARK  185  A    between atoms: _440  and  _441
REMARK  186  A    between atoms: _451  and  _453
REMARK  187  A    between atoms: _453  and  _454
REMARK  188  A    between atoms: _453  and  _456
REMARK  189  A    between atoms: _456  and  _457
REMARK  190  A    between atoms: _457  and  _458
REMARK  191  A    between atoms: _458  and  _459
REMARK  192  A    between atoms: _459  and  _460
REMARK  193  A    between atoms: _464  and  _466
REMARK  194  A    between atoms: _466  and  _467
REMARK  195  A    between atoms: _466  and  _469
REMARK  196  A    between atoms: _469  and  _470
REMARK  197  A    between atoms: _473  and  _474
REMARK  198  A    between atoms: _479  and  _481
REMARK  199  A    between atoms: _481  and  _482
REMARK  200  A    between atoms: _481  and  _484
REMARK  201  A    between atoms: _484  and  _485
REMARK  202  A    between atoms: _485  and  _486
REMARK  203  A    between atoms: _486  and  _487
REMARK  204  A    between atoms: _496  and  _498
REMARK  205  A    between atoms: _498  and  _499
REMARK  206  A    between atoms: _498  and  _501
REMARK  207  A    between atoms: _501  and  _502
REMARK  208  A    between atoms: _505  and  _507
REMARK  209  A    between atoms: _507  and  _508
REMARK  210  A    between atoms: _507  and  _510
REMARK  211  A    between atoms: _510  and  _511
REMARK  212  A    between atoms: _513  and  _515
REMARK  213  A    between atoms: _515  and  _516
REMARK  214  A    between atoms: _515  and  _518
REMARK  215  A    between atoms: _518  and  _519
REMARK  216  A    between atoms: _519  and  _520
REMARK  217  A    between atoms: _520  and  _521
REMARK  218  A    between atoms: _521  and  _522
REMARK  219  A    between atoms: _526  and  _528
REMARK  220  A    between atoms: _528  and  _529
REMARK  221  A    between atoms: _528  and  _531
REMARK  222  A    between atoms: _531  and  _532
REMARK  223  A    between atoms: _535  and  _537
REMARK  224  A    between atoms: _537  and  _538
REMARK  225  A    between atoms: _540  and  _542
REMARK  226  A    between atoms: _542  and  _543
REMARK  227  A    between atoms: _542  and  _545
REMARK  228  A    between atoms: _545  and  _546
REMARK  229  A    between atoms: _548  and  _550
REMARK  230  A    between atoms: _550  and  _551
REMARK  231  A    between atoms: _553  and  _555
REMARK  232  A    between atoms: _555  and  _556
REMARK  233  A    between atoms: _555  and  _558
REMARK  234  A    between atoms: _558  and  _559
REMARK  235  A    between atoms: _564  and  _566
REMARK  236  A    between atoms: _566  and  _567
REMARK  237  A    between atoms: _566  and  _569
REMARK  238  A    between atoms: _569  and  _570
REMARK  239  A    between atoms: _573  and  _575
REMARK  240  A    between atoms: _575  and  _576
REMARK  241  A    between atoms: _575  and  _578
REMARK  242  A    between atoms: _578  and  _579
REMARK  243  A    between atoms: _585  and  _587
REMARK  244  A    between atoms: _587  and  _588
REMARK  245  A    between atoms: _587  and  _590
REMARK  246  A    between atoms: _590  and  _591
REMARK  247  A    between atoms: _591  and  _592
REMARK  248  A    between atoms: _595  and  _597
REMARK  249  A    between atoms: _597  and  _598
REMARK  250  A    between atoms: _597  and  _600
REMARK  251  A    between atoms: _600  and  _601
REMARK  252  A    between atoms: _601  and  _602
REMARK  253  A    between atoms: _602  and  _603
REMARK  254  A    between atoms: _612  and  _614
REMARK  255  A    between atoms: _614  and  _615
REMARK  256  A    between atoms: _614  and  _617
REMARK  257  A    between atoms: _617  and  _618
REMARK  258  A    between atoms: _618  and  _619
REMARK  259  A    between atoms: _619  and  _620
REMARK  260  A    between atoms: _629  and  _631
REMARK  261  A    between atoms: _631  and  _632
REMARK  262  A    between atoms: _631  and  _634
REMARK  263  A    between atoms: _634  and  _635
REMARK  264  A    between atoms: _640  and  _641
REMARK  265  A    between atoms: _643  and  _645
REMARK  266  A    between atoms: _645  and  _646
REMARK  267  A    between atoms: _645  and  _648
REMARK  268  A    between atoms: _648  and  _649
REMARK  269  A    between atoms: _652  and  _654
REMARK  270  A    between atoms: _654  and  _655
REMARK  271  A    between atoms: _654  and  _657
REMARK  272  A    between atoms: _657  and  _658
REMARK  273  A    between atoms: _658  and  _659
REMARK  274  A    between atoms: _659  and  _660
REMARK  275  A    between atoms: _660  and  _661
REMARK  276  A    between atoms: _665  and  _667
REMARK  277  A    between atoms: _667  and  _668
REMARK  278  A    between atoms: _667  and  _670
REMARK  279  A    between atoms: _670  and  _671
REMARK  280  A    between atoms: _676  and  _678
REMARK  281  A    between atoms: _678  and  _679
REMARK  282  A    between atoms: _678  and  _681
REMARK  283  A    between atoms: _681  and  _682
REMARK  284  A    between atoms: _692  and  _694
REMARK  285  A    between atoms: _694  and  _695
REMARK  286  A    between atoms: _694  and  _697
REMARK  287  A    between atoms: _697  and  _698
REMARK  288  A    between atoms: _698  and  _699
REMARK  289  A    between atoms: _702  and  _704
REMARK  290  A    between atoms: _704  and  _705
REMARK  291  A    between atoms: _704  and  _707
REMARK  292  A    between atoms: _707  and  _708
REMARK  293  A    between atoms: _711  and  _713
REMARK  294  A    between atoms: _713  and  _714
REMARK  295  A    between atoms: _713  and  _716
REMARK  296  A    between atoms: _716  and  _717
REMARK  297  A    between atoms: _722  and  _724
REMARK  298  A    between atoms: _724  and  _725
REMARK  299  A    between atoms: _724  and  _727
REMARK  300  A    between atoms: _727  and  _728
REMARK  301  A    between atoms: _734  and  _736
REMARK  302  A    between atoms: _736  and  _737
REMARK  303  A    between atoms: _736  and  _739
REMARK  304  A    between atoms: _739  and  _740
REMARK  305  A    between atoms: _742  and  _744
REMARK  306  A    between atoms: _744  and  _745
REMARK  307  A    between atoms: _747  and  _749
REMARK  308  A    between atoms: _749  and  _750
REMARK  309  A    between atoms: _749  and  _752
REMARK  310  A    between atoms: _752  and  _753
REMARK  311  A    between atoms: _758  and  _759
REMARK  312  A    between atoms: _761  and  _763
REMARK  313  A    between atoms: _763  and  _764
REMARK  314  A    between atoms: _763  and  _766
REMARK  315  A    between atoms: _766  and  _767
REMARK  316  A    between atoms: _772  and  _773
REMARK  317  A    between atoms: _775  and  _777
REMARK  318  A    between atoms: _777  and  _778
REMARK  319  A    between atoms: _777  and  _780
REMARK  320  A    between atoms: _780  and  _781
REMARK  321  A    between atoms: _785  and  ZN_876
REMARK  322  A    between atoms: _786  and  _788
REMARK  323  A    between atoms: _788  and  _789
REMARK  324  A    between atoms: _788  and  _791
REMARK  325  A    between atoms: _791  and  _792
REMARK  326  A    between atoms: _792  and  _793
REMARK  327  A    between atoms: _796  and  _798
REMARK  328  A    between atoms: _798  and  _799
REMARK  329  A    between atoms: _798  and  _801
REMARK  330  A    between atoms: _801  and  _802
REMARK  331  A    between atoms: _802  and  _803
REMARK  332  A    between atoms: _803  and  _804
REMARK  333  A    between atoms: _813  and  _815
REMARK  334  A    between atoms: _815  and  _816
REMARK  335  A    between atoms: _815  and  _818
REMARK  336  A    between atoms: _818  and  _819
REMARK  337  A    between atoms: _824  and  _825
REMARK  338  A    between atoms: _827  and  _829
REMARK  339  A    between atoms: _829  and  _830
REMARK  340  A    between atoms: _829  and  _832
REMARK  341  A    between atoms: _832  and  _833
REMARK  342  A    between atoms: _838  and  _840
REMARK  343  A    between atoms: _840  and  _841
REMARK  344  A    between atoms: _840  and  _843
REMARK  345  A    between atoms: _843  and  _844
REMARK  346  A    between atoms: _844  and  _845
REMARK  347  A    between atoms: _845  and  _846
REMARK  348  A    between atoms: _846  and  _847
REMARK  349  A    between atoms: _851  and  _853
REMARK  350  A    between atoms: _853  and  _854
REMARK  351  A    between atoms: _853  and  _856
REMARK  352  A    between atoms: _856  and  _857
REMARK  353  A    between atoms: _862  and  _863
REMARK  354  A    between atoms: _865  and  _867
REMARK  355  A    between atoms: _867  and  _868
REMARK  356  A    between atoms: _871  and  _873
REMARK  357  A    between atoms: _873  and  _874
REMARK                            x       y       z     vdW  Elec       q    Type
REMARK                         _______ _______ _______ _____ _____    ______ ____
ROOT
ATOM      1  O   HOH     1      28.284  53.407  36.919  0.00  0.00    +0.000 OA
ENDROOT
TORSDOF 0
REMARK  Name = ../refined-set-2016/2xei/2xei_pocket.pdb
REMARK  357 active torsions:
REMARK  status: ('A' for Active; 'I' for Inactive)
REMARK    1  A    between atoms: _1  and  _3
REMARK    2  A    between atoms: _3  and  _4
REMARK    3  A    between atoms: _7  and  _9
REMARK    4  A    between atoms: _9  and  _10
REMARK    5  A    between atoms: _9  and  _12
REMARK    6  A    between atoms: _12  and  _13
REMARK    7  A    between atoms: _19  and  _21
REMARK    8  A    between atoms: _21  and  _22
REMARK    9  A    between atoms: _24  and  _26
REMARK   10  A    between atoms: _26  and  _27
REMARK   11  A    between atoms: _26  and  _29
REMARK   12  A    between atoms: _29  and  _30
REMARK   13  A    between atoms: _30  and  _31
REMARK   14  A    between atoms: _31  and  _32
REMARK   15  A    between atoms: _32  and  _33
REMARK   16  A    between atoms: _37  and  _39
REMARK   17  A    between atoms: _39  and  _40
REMARK   18  A    between atoms: _39  and  _42
REMARK   19  A    between atoms: _45  and  _47
REMARK   20  A    between atoms: _47  and  _48
REMARK   21  A    between atoms: _47  and  _50
REMARK   22  A    between atoms: _50  and  _51
REMARK   23  A    between atoms: _57  and  _59
REMARK   24  A    between atoms: _59  and  _60
REMARK   25  A    between atoms: _59  and  _62
REMARK   26  A    between atoms: _62  and  _63
REMARK   27  A    between atoms: _63  and  _64
REMARK   28  A    between atoms: _64  and  _65
REMARK   29  A    between atoms: _74  and  _76
REMARK   30  A    between atoms: _76  and  _77
REMARK   31  A    between atoms: _79  and  _81
REMARK   32  A    between atoms: _81  and  _82
REMARK   33  A    between atoms: _81  and  _84
REMARK   34  A    between atoms: _84  and  _85
REMARK   35  A    between atoms: _90  and  _91
REMARK   36  A    between atoms: _93  and  _95
REMARK   37  A    between atoms: _95  and  _96
REMARK   38  A    between atoms: _95  and  _98
REMARK   39  A    between atoms: _98  and  _99
REMARK   40  A    between atoms: _99  and  _100
REMARK   41  A    between atoms: _105  and  _107
REMARK   42  A    between atoms: _107  and  _108
REMARK   43  A    between atoms: _107  and  _110
REMARK   44  A    between atoms: _110  and  _111
REMARK   45  A    between atoms: _111  and  _112
REMARK   46  A    between atoms: _112  and  _113
REMARK   47  A    between atoms: _122  and  _124
REMARK   48  A    between atoms: _124  and  _125
REMARK   49  A    between atoms: _127  and  _129
REMARK   50  A    between atoms: _129  and  _130
REMARK   51  A    between atoms: _129  and  _132
REMARK   52  A    between atoms: _132  and  _133
REMARK   53  A    between atoms: _138  and  _140
REMARK   54  A    between atoms: _140  and  _141
REMARK   55  A    between atoms: _140  and  _143
REMARK   56  A    between atoms: _143  and  _144
REMARK   57  A    between atoms: _147  and  _149
REMARK   58  A    between atoms: _149  and  _150
REMARK   59  A    between atoms: _149  and  _152
REMARK   60  A    between atoms: _152  and  _153
REMARK   61  A    between atoms: _156  and  _158
REMARK   62  A    between atoms: _158  and  _159
REMARK   63  A    between atoms: _158  and  _161
REMARK   64  A    between atoms: _161  and  _162
REMARK   65  A    between atoms: _167  and  _169
REMARK   66  A    between atoms: _169  and  _170
REMARK   67  A    between atoms: _169  and  _172
REMARK   68  A    between atoms: _172  and  _173
REMARK   69  A    between atoms: _176  and  _178
REMARK   70  A    between atoms: _178  and  _179
REMARK   71  A    between atoms: _178  and  _181
REMARK   72  A    between atoms: _181  and  _182
REMARK   73  A    between atoms: _187  and  _189
REMARK   74  A    between atoms: _189  and  _190
REMARK   75  A    between atoms: _192  and  _194
REMARK   76  A    between atoms: _194  and  _195
REMARK   77  A    between atoms: _194  and  _197
REMARK   78  A    between atoms: _197  and  _198
REMARK   79  A    between atoms: _202  and  ZN_877
REMARK   80  A    between atoms: _203  and  _205
REMARK   81  A    between atoms: _205  and  _206
REMARK   82  A    between atoms: _205  and  _208
REMARK   83  A    between atoms: _208  and  _209
REMARK   84  A    between atoms: _212  and  _214
REMARK   85  A    between atoms: _214  and  _215
REMARK   86  A    between atoms: _214  and  _217
REMARK   87  A    between atoms: _217  and  _218
REMARK   88  A    between atoms: _228  and  _230
REMARK   89  A    between atoms: _230  and  _231
REMARK   90  A    between atoms: _230  and  _233
REMARK   91  A    between atoms: _233  and  _234
REMARK   92  A    between atoms: _237  and  _239
REMARK   93  A    between atoms: _239  and  _240
REMARK   94  A    between atoms: _239  and  _242
REMARK   95  A    between atoms: _242  and  _243
REMARK   96  A    between atoms: _243  and  _244
REMARK   97  A    between atoms: _243  and  _245
REMARK   98  A    between atoms: _244  and  ZN_877
REMARK   99  A    between atoms: _245  and  ZN_876
REMARK  100  A    between atoms: _247  and  _248
REMARK  101  A    between atoms: _253  and  _255
REMARK  102  A    between atoms: _255  and  _256
REMARK  103  A    between atoms: _259  and  _261
REMARK  104  A    between atoms: _261  and  _262
REMARK  105  A    between atoms: _261  and  _264
REMARK  106  A    between atoms: _264  and  _265
REMARK  107  A    between atoms: _265  and  _266
REMARK  108  A    between atoms: _269  and  _271
REMARK  109  A    between atoms: _271  and  _272
REMARK  110  A    between atoms: _271  and  _274
REMARK  111  A    between atoms: _274  and  _275
REMARK  112  A    between atoms: _275  and  _276
REMARK  113  A    between atoms: _276  and  _278
REMARK  114  A    between atoms: _278  and  ZN_876
REMARK  115  A    between atoms: _279  and  _281
REMARK  116  A    between atoms: _281  and  _282
REMARK  117  A    between atoms: _281  and  _284
REMARK  118  A    between atoms: _284  and  _285
REMARK  119  A    between atoms: _291  and  _293
REMARK  120  A    between atoms: _293  and  _294
REMARK  121  A    between atoms: _296  and  _298
REMARK  122  A    between atoms: _298  and  _299
REMARK  123  A    between atoms: _298  and  _301
REMARK  124  A    between atoms: _301  and  _302
REMARK  125  A    between atoms: _305  and  _307
REMARK  126  A    between atoms: _307  and  _308
REMARK  127  A    between atoms: _307  and  _310
REMARK  128  A    between atoms: _310  and  _311
REMARK  129  A    between atoms: _314  and  _316
REMARK  130  A    between atoms: _316  and  _317
REMARK  131  A    between atoms: _316  and  _319
REMARK  132  A    between atoms: _319  and  _320
REMARK  133  A    between atoms: _325  and  _327
REMARK  134  A    between atoms: _327  and  _328
REMARK  135  A    between atoms: _327  and  _330
REMARK  136  A    between atoms: _330  and  _331
REMARK  137  A    between atoms: _331  and  _333
REMARK  138  A    between atoms: _333  and  ZN_877
REMARK  139  A    between atoms: _334  and  _336
REMARK  140  A    between atoms: _336  and  _337
REMARK  141  A    between atoms: _336  and  _339
REMARK  142  A    between atoms: _339  and  _340
REMARK  143  A    between atoms: _342  and  _344
REMARK  144  A    between atoms: _344  and  _345
REMARK  145  A    between atoms: _344  and  _347
REMARK  146  A    between atoms: _347  and  _348
REMARK  147  A    between atoms: _350  and  _352
REMARK  148  A    between atoms: _352  and  _353
REMARK  149  A    between atoms: _352  and  _355
REMARK  150  A    between atoms: _355  and  _356
REMARK  151  A    between atoms: _359  and  _361
REMARK  152  A    between atoms: _361  and  _362
REMARK  153  A    between atoms: _361  and  _364
REMARK  154  A    between atoms: _364  and  _365
REMARK  155  A    between atoms: _365  and  _366
REMARK  156  A    between atoms: _369  and  _371
REMARK  157  A    between atoms: _371  and  _372
REMARK  158  A    between atoms: _371  and  _374
REMARK  159  A    between atoms: _374  and  _375
REMARK  160  A    between atoms: _380  and  _381
REMARK  161  A    between atoms: _383  and  _385
REMARK  162  A    between atoms: _385  and  _386
REMARK  163  A    between atoms: _385  and  _388
REMARK  164  A    between atoms: _388  and  _389
REMARK  165  A    between atoms: _392  and  _394
REMARK  166  A    between atoms: _394  and  _395
REMARK  167  A    between atoms: _394  and  _397
REMARK  168  A    between atoms: _397  and  _398
REMARK  169  A    between atoms: _401  and  _403
REMARK  170  A    between atoms: _403  and  _404
REMARK  171  A    between atoms: _403  and  _406
REMARK  172  A    between atoms: _406  and  _407
REMARK  173  A    between atoms: _407  and  _408
REMARK  174  A    between atoms: _408  and  _409
REMARK  175  A    between atoms: _418  and  _420
REMARK  176  A    between atoms: _420  and  _421
REMARK  177  A    between atoms: _420  and  _423
REMARK  178  A    between atoms: _426  and  _428
REMARK  179  A    between atoms: _428  and  _429
REMARK  180  A    between atoms: _428  and  _431
REMARK  181  A    between atoms: _431  and  _432
REMARK  182  A    between atoms: _435  and  _437
REMARK  183  A    between atoms: _437  and  _438
REMARK  184  A    between atoms: _437  and  _440
REMARK  185  A    between atoms: _440  and  _441
REMARK  186  A    between atoms: _451  and  _453
REMARK  187  A    between atoms: _453  and  _454
REMARK  188  A    between atoms: _453  and  _456
REMARK  189  A    between atoms: _456  and  _457
REMARK  190  A    between atoms: _457  and  _458
REMARK  191  A    between atoms: _458  and  _459
REMARK  192  A    between atoms: _459  and  _460
REMARK  193  A    between atoms: _464  and  _466
REMARK  194  A    between atoms: _466  and  _467
REMARK  195  A    between atoms: _466  and  _469
REMARK  196  A    between atoms: _469  and  _470
REMARK  197  A    between atoms: _473  and  _474
REMARK  198  A    between atoms: _479  and  _481
REMARK  199  A    between atoms: _481  and  _482
REMARK  200  A    between atoms: _481  and  _484
REMARK  201  A    between atoms: _484  and  _485
REMARK  202  A    between atoms: _485  and  _486
REMARK  203  A    between atoms: _486  and  _487
REMARK  204  A    between atoms: _496  and  _498
REMARK  205  A    between atoms: _498  and  _499
REMARK  206  A    between atoms: _498  and  _501
REMARK  207  A    between atoms: _501  and  _502
REMARK  208  A    between atoms: _505  and  _507
REMARK  209  A    between atoms: _507  and  _508
REMARK  210  A    between atoms: _507  and  _510
REMARK  211  A    between atoms: _510  and  _511
REMARK  212  A    between atoms: _513  and  _515
REMARK  213  A    between atoms: _515  and  _516
REMARK  214  A    between atoms: _515  and  _518
REMARK  215  A    between atoms: _518  and  _519
REMARK  216  A    between atoms: _519  and  _520
REMARK  217  A    between atoms: _520  and  _521
REMARK  218  A    between atoms: _521  and  _522
REMARK  219  A    between atoms: _526  and  _528
REMARK  220  A    between atoms: _528  and  _529
REMARK  221  A    between atoms: _528  and  _531
REMARK  222  A    between atoms: _531  and  _532
REMARK  223  A    between atoms: _535  and  _537
REMARK  224  A    between atoms: _537  and  _538
REMARK  225  A    between atoms: _540  and  _542
REMARK  226  A    between atoms: _542  and  _543
REMARK  227  A    between atoms: _542  and  _545
REMARK  228  A    between atoms: _545  and  _546
REMARK  229  A    between atoms: _548  and  _550
REMARK  230  A    between atoms: _550  and  _551
REMARK  231  A    between atoms: _553  and  _555
REMARK  232  A    between atoms: _555  and  _556
REMARK  233  A    between atoms: _555  and  _558
REMARK  234  A    between atoms: _558  and  _559
REMARK  235  A    between atoms: _564  and  _566
REMARK  236  A    between atoms: _566  and  _567
REMARK  237  A    between atoms: _566  and  _569
REMARK  238  A    between atoms: _569  and  _570
REMARK  239  A    between atoms: _573  and  _575
REMARK  240  A    between atoms: _575  and  _576
REMARK  241  A    between atoms: _575  and  _578
REMARK  242  A    between atoms: _578  and  _579
REMARK  243  A    between atoms: _585  and  _587
REMARK  244  A    between atoms: _587  and  _588
REMARK  245  A    between atoms: _587  and  _590
REMARK  246  A    between atoms: _590  and  _591
REMARK  247  A    between atoms: _591  and  _592
REMARK  248  A    between atoms: _595  and  _597
REMARK  249  A    between atoms: _597  and  _598
REMARK  250  A    between atoms: _597  and  _600
REMARK  251  A    between atoms: _600  and  _601
REMARK  252  A    between atoms: _601  and  _602
REMARK  253  A    between atoms: _602  and  _603
REMARK  254  A    between atoms: _612  and  _614
REMARK  255  A    between atoms: _614  and  _615
REMARK  256  A    between atoms: _614  and  _617
REMARK  257  A    between atoms: _617  and  _618
REMARK  258  A    between atoms: _618  and  _619
REMARK  259  A    between atoms: _619  and  _620
REMARK  260  A    between atoms: _629  and  _631
REMARK  261  A    between atoms: _631  and  _632
REMARK  262  A    between atoms: _631  and  _634
REMARK  263  A    between atoms: _634  and  _635
REMARK  264  A    between atoms: _640  and  _641
REMARK  265  A    between atoms: _643  and  _645
REMARK  266  A    between atoms: _645  and  _646
REMARK  267  A    between atoms: _645  and  _648
REMARK  268  A    between atoms: _648  and  _649
REMARK  269  A    between atoms: _652  and  _654
REMARK  270  A    between atoms: _654  and  _655
REMARK  271  A    between atoms: _654  and  _657
REMARK  272  A    between atoms: _657  and  _658
REMARK  273  A    between atoms: _658  and  _659
REMARK  274  A    between atoms: _659  and  _660
REMARK  275  A    between atoms: _660  and  _661
REMARK  276  A    between atoms: _665  and  _667
REMARK  277  A    between atoms: _667  and  _668
REMARK  278  A    between atoms: _667  and  _670
REMARK  279  A    between atoms: _670  and  _671
REMARK  280  A    between atoms: _676  and  _678
REMARK  281  A    between atoms: _678  and  _679
REMARK  282  A    between atoms: _678  and  _681
REMARK  283  A    between atoms: _681  and  _682
REMARK  284  A    between atoms: _692  and  _694
REMARK  285  A    between atoms: _694  and  _695
REMARK  286  A    between atoms: _694  and  _697
REMARK  287  A    between atoms: _697  and  _698
REMARK  288  A    between atoms: _698  and  _699
REMARK  289  A    between atoms: _702  and  _704
REMARK  290  A    between atoms: _704  and  _705
REMARK  291  A    between atoms: _704  and  _707
REMARK  292  A    between atoms: _707  and  _708
REMARK  293  A    between atoms: _711  and  _713
REMARK  294  A    between atoms: _713  and  _714
REMARK  295  A    between atoms: _713  and  _716
REMARK  296  A    between atoms: _716  and  _717
REMARK  297  A    between atoms: _722  and  _724
REMARK  298  A    between atoms: _724  and  _725
REMARK  299  A    between atoms: _724  and  _727
REMARK  300  A    between atoms: _727  and  _728
REMARK  301  A    between atoms: _734  and  _736
REMARK  302  A    between atoms: _736  and  _737
REMARK  303  A    between atoms: _736  and  _739
REMARK  304  A    between atoms: _739  and  _740
REMARK  305  A    between atoms: _742  and  _744
REMARK  306  A    between atoms: _744  and  _745
REMARK  307  A    between atoms: _747  and  _749
REMARK  308  A    between atoms: _749  and  _750
REMARK  309  A    between atoms: _749  and  _752
REMARK  310  A    between atoms: _752  and  _753
REMARK  311  A    between atoms: _758  and  _759
REMARK  312  A    between atoms: _761  and  _763
REMARK  313  A    between atoms: _763  and  _764
REMARK  314  A    between atoms: _763  and  _766
REMARK  315  A    between atoms: _766  and  _767
REMARK  316  A    between atoms: _772  and  _773
REMARK  317  A    between atoms: _775  and  _777
REMARK  318  A    between atoms: _777  and  _778
REMARK  319  A    between atoms: _777  and  _780
REMARK  320  A    between atoms: _780  and  _781
REMARK  321  A    between atoms: _785  and  ZN_876
REMARK  322  A    between atoms: _786  and  _788
REMARK  323  A    between atoms: _788  and  _789
REMARK  324  A    between atoms: _788  and  _791
REMARK  325  A    between atoms: _791  and  _792
REMARK  326  A    between atoms: _792  and  _793
REMARK  327  A    between atoms: _796  and  _798
REMARK  328  A    between atoms: _798  and  _799
REMARK  329  A    between atoms: _798  and  _801
REMARK  330  A    between atoms: _801  and  _802
REMARK  331  A    between atoms: _802  and  _803
REMARK  332  A    between atoms: _803  and  _804
REMARK  333  A    between atoms: _813  and  _815
REMARK  334  A    between atoms: _815  and  _816
REMARK  335  A    between atoms: _815  and  _818
REMARK  336  A    between atoms: _818  and  _819
REMARK  337  A    between atoms: _824  and  _825
REMARK  338  A    between atoms: _827  and  _829
REMARK  339  A    between atoms: _829  and  _830
REMARK  340  A    between atoms: _829  and  _832
REMARK  341  A    between atoms: _832  and  _833
REMARK  342  A    between atoms: _838  and  _840
REMARK  343  A    between atoms: _840  and  _841
REMARK  344  A    between atoms: _840  and  _843
REMARK  345  A    between atoms: _843  and  _844
REMARK  346  A    between atoms: _844  and  _845
REMARK  347  A    between atoms: _845  and  _846
REMARK  348  A    between atoms: _846  and  _847
REMARK  349  A    between atoms: _851  and  _853
REMARK  350  A    between atoms: _853  and  _854
REMARK  351  A    between atoms: _853  and  _856
REMARK  352  A    between atoms: _856  and  _857
REMARK  353  A    between atoms: _862  and  _863
REMARK  354  A    between atoms: _865  and  _867
REMARK  355  A    between atoms: _867  and  _868
REMARK  356  A    between atoms: _871  and  _873
REMARK  357  A    between atoms: _873  and  _874
REMARK                            x       y       z     vdW  Elec       q    Type
REMARK                         _______ _______ _______ _____ _____    ______ ____
ROOT
ATOM      1  O   HOH     1      31.898  49.212  37.976  0.00  0.00    +0.000 OA
ENDROOT
TORSDOF 0
REMARK  Name = ../refined-set-2016/2xei/2xei_pocket.pdb
REMARK  357 active torsions:
REMARK  status: ('A' for Active; 'I' for Inactive)
REMARK    1  A    between atoms: _1  and  _3
REMARK    2  A    between atoms: _3  and  _4
REMARK    3  A    between atoms: _7  and  _9
REMARK    4  A    between atoms: _9  and  _10
REMARK    5  A    between atoms: _9  and  _12
REMARK    6  A    between atoms: _12  and  _13
REMARK    7  A    between atoms: _19  and  _21
REMARK    8  A    between atoms: _21  and  _22
REMARK    9  A    between atoms: _24  and  _26
REMARK   10  A    between atoms: _26  and  _27
REMARK   11  A    between atoms: _26  and  _29
REMARK   12  A    between atoms: _29  and  _30
REMARK   13  A    between atoms: _30  and  _31
REMARK   14  A    between atoms: _31  and  _32
REMARK   15  A    between atoms: _32  and  _33
REMARK   16  A    between atoms: _37  and  _39
REMARK   17  A    between atoms: _39  and  _40
REMARK   18  A    between atoms: _39  and  _42
REMARK   19  A    between atoms: _45  and  _47
REMARK   20  A    between atoms: _47  and  _48
REMARK   21  A    between atoms: _47  and  _50
REMARK   22  A    between atoms: _50  and  _51
REMARK   23  A    between atoms: _57  and  _59
REMARK   24  A    between atoms: _59  and  _60
REMARK   25  A    between atoms: _59  and  _62
REMARK   26  A    between atoms: _62  and  _63
REMARK   27  A    between atoms: _63  and  _64
REMARK   28  A    between atoms: _64  and  _65
REMARK   29  A    between atoms: _74  and  _76
REMARK   30  A    between atoms: _76  and  _77
REMARK   31  A    between atoms: _79  and  _81
REMARK   32  A    between atoms: _81  and  _82
REMARK   33  A    between atoms: _81  and  _84
REMARK   34  A    between atoms: _84  and  _85
REMARK   35  A    between atoms: _90  and  _91
REMARK   36  A    between atoms: _93  and  _95
REMARK   37  A    between atoms: _95  and  _96
REMARK   38  A    between atoms: _95  and  _98
REMARK   39  A    between atoms: _98  and  _99
REMARK   40  A    between atoms: _99  and  _100
REMARK   41  A    between atoms: _105  and  _107
REMARK   42  A    between atoms: _107  and  _108
REMARK   43  A    between atoms: _107  and  _110
REMARK   44  A    between atoms: _110  and  _111
REMARK   45  A    between atoms: _111  and  _112
REMARK   46  A    between atoms: _112  and  _113
REMARK   47  A    between atoms: _122  and  _124
REMARK   48  A    between atoms: _124  and  _125
REMARK   49  A    between atoms: _127  and  _129
REMARK   50  A    between atoms: _129  and  _130
REMARK   51  A    between atoms: _129  and  _132
REMARK   52  A    between atoms: _132  and  _133
REMARK   53  A    between atoms: _138  and  _140
REMARK   54  A    between atoms: _140  and  _141
REMARK   55  A    between atoms: _140  and  _143
REMARK   56  A    between atoms: _143  and  _144
REMARK   57  A    between atoms: _147  and  _149
REMARK   58  A    between atoms: _149  and  _150
REMARK   59  A    between atoms: _149  and  _152
REMARK   60  A    between atoms: _152  and  _153
REMARK   61  A    between atoms: _156  and  _158
REMARK   62  A    between atoms: _158  and  _159
REMARK   63  A    between atoms: _158  and  _161
REMARK   64  A    between atoms: _161  and  _162
REMARK   65  A    between atoms: _167  and  _169
REMARK   66  A    between atoms: _169  and  _170
REMARK   67  A    between atoms: _169  and  _172
REMARK   68  A    between atoms: _172  and  _173
REMARK   69  A    between atoms: _176  and  _178
REMARK   70  A    between atoms: _178  and  _179
REMARK   71  A    between atoms: _178  and  _181
REMARK   72  A    between atoms: _181  and  _182
REMARK   73  A    between atoms: _187  and  _189
REMARK   74  A    between atoms: _189  and  _190
REMARK   75  A    between atoms: _192  and  _194
REMARK   76  A    between atoms: _194  and  _195
REMARK   77  A    between atoms: _194  and  _197
REMARK   78  A    between atoms: _197  and  _198
REMARK   79  A    between atoms: _202  and  ZN_877
REMARK   80  A    between atoms: _203  and  _205
REMARK   81  A    between atoms: _205  and  _206
REMARK   82  A    between atoms: _205  and  _208
REMARK   83  A    between atoms: _208  and  _209
REMARK   84  A    between atoms: _212  and  _214
REMARK   85  A    between atoms: _214  and  _215
REMARK   86  A    between atoms: _214  and  _217
REMARK   87  A    between atoms: _217  and  _218
REMARK   88  A    between atoms: _228  and  _230
REMARK   89  A    between atoms: _230  and  _231
REMARK   90  A    between atoms: _230  and  _233
REMARK   91  A    between atoms: _233  and  _234
REMARK   92  A    between atoms: _237  and  _239
REMARK   93  A    between atoms: _239  and  _240
REMARK   94  A    between atoms: _239  and  _242
REMARK   95  A    between atoms: _242  and  _243
REMARK   96  A    between atoms: _243  and  _244
REMARK   97  A    between atoms: _243  and  _245
REMARK   98  A    between atoms: _244  and  ZN_877
REMARK   99  A    between atoms: _245  and  ZN_876
REMARK  100  A    between atoms: _247  and  _248
REMARK  101  A    between atoms: _253  and  _255
REMARK  102  A    between atoms: _255  and  _256
REMARK  103  A    between atoms: _259  and  _261
REMARK  104  A    between atoms: _261  and  _262
REMARK  105  A    between atoms: _261  and  _264
REMARK  106  A    between atoms: _264  and  _265
REMARK  107  A    between atoms: _265  and  _266
REMARK  108  A    between atoms: _269  and  _271
REMARK  109  A    between atoms: _271  and  _272
REMARK  110  A    between atoms: _271  and  _274
REMARK  111  A    between atoms: _274  and  _275
REMARK  112  A    between atoms: _275  and  _276
REMARK  113  A    between atoms: _276  and  _278
REMARK  114  A    between atoms: _278  and  ZN_876
REMARK  115  A    between atoms: _279  and  _281
REMARK  116  A    between atoms: _281  and  _282
REMARK  117  A    between atoms: _281  and  _284
REMARK  118  A    between atoms: _284  and  _285
REMARK  119  A    between atoms: _291  and  _293
REMARK  120  A    between atoms: _293  and  _294
REMARK  121  A    between atoms: _296  and  _298
REMARK  122  A    between atoms: _298  and  _299
REMARK  123  A    between atoms: _298  and  _301
REMARK  124  A    between atoms: _301  and  _302
REMARK  125  A    between atoms: _305  and  _307
REMARK  126  A    between atoms: _307  and  _308
REMARK  127  A    between atoms: _307  and  _310
REMARK  128  A    between atoms: _310  and  _311
REMARK  129  A    between atoms: _314  and  _316
REMARK  130  A    between atoms: _316  and  _317
REMARK  131  A    between atoms: _316  and  _319
REMARK  132  A    between atoms: _319  and  _320
REMARK  133  A    between atoms: _325  and  _327
REMARK  134  A    between atoms: _327  and  _328
REMARK  135  A    between atoms: _327  and  _330
REMARK  136  A    between atoms: _330  and  _331
REMARK  137  A    between atoms: _331  and  _333
REMARK  138  A    between atoms: _333  and  ZN_877
REMARK  139  A    between atoms: _334  and  _336
REMARK  140  A    between atoms: _336  and  _337
REMARK  141  A    between atoms: _336  and  _339
REMARK  142  A    between atoms: _339  and  _340
REMARK  143  A    between atoms: _342  and  _344
REMARK  144  A    between atoms: _344  and  _345
REMARK  145  A    between atoms: _344  and  _347
REMARK  146  A    between atoms: _347  and  _348
REMARK  147  A    between atoms: _350  and  _352
REMARK  148  A    between atoms: _352  and  _353
REMARK  149  A    between atoms: _352  and  _355
REMARK  150  A    between atoms: _355  and  _356
REMARK  151  A    between atoms: _359  and  _361
REMARK  152  A    between atoms: _361  and  _362
REMARK  153  A    between atoms: _361  and  _364
REMARK  154  A    between atoms: _364  and  _365
REMARK  155  A    between atoms: _365  and  _366
REMARK  156  A    between atoms: _369  and  _371
REMARK  157  A    between atoms: _371  and  _372
REMARK  158  A    between atoms: _371  and  _374
REMARK  159  A    between atoms: _374  and  _375
REMARK  160  A    between atoms: _380  and  _381
REMARK  161  A    between atoms: _383  and  _385
REMARK  162  A    between atoms: _385  and  _386
REMARK  163  A    between atoms: _385  and  _388
REMARK  164  A    between atoms: _388  and  _389
REMARK  165  A    between atoms: _392  and  _394
REMARK  166  A    between atoms: _394  and  _395
REMARK  167  A    between atoms: _394  and  _397
REMARK  168  A    between atoms: _397  and  _398
REMARK  169  A    between atoms: _401  and  _403
REMARK  170  A    between atoms: _403  and  _404
REMARK  171  A    between atoms: _403  and  _406
REMARK  172  A    between atoms: _406  and  _407
REMARK  173  A    between atoms: _407  and  _408
REMARK  174  A    between atoms: _408  and  _409
REMARK  175  A    between atoms: _418  and  _420
REMARK  176  A    between atoms: _420  and  _421
REMARK  177  A    between atoms: _420  and  _423
REMARK  178  A    between atoms: _426  and  _428
REMARK  179  A    between atoms: _428  and  _429
REMARK  180  A    between atoms: _428  and  _431
REMARK  181  A    between atoms: _431  and  _432
REMARK  182  A    between atoms: _435  and  _437
REMARK  183  A    between atoms: _437  and  _438
REMARK  184  A    between atoms: _437  and  _440
REMARK  185  A    between atoms: _440  and  _441
REMARK  186  A    between atoms: _451  and  _453
REMARK  187  A    between atoms: _453  and  _454
REMARK  188  A    between atoms: _453  and  _456
REMARK  189  A    between atoms: _456  and  _457
REMARK  190  A    between atoms: _457  and  _458
REMARK  191  A    between atoms: _458  and  _459
REMARK  192  A    between atoms: _459  and  _460
REMARK  193  A    between atoms: _464  and  _466
REMARK  194  A    between atoms: _466  and  _467
REMARK  195  A    between atoms: _466  and  _469
REMARK  196  A    between atoms: _469  and  _470
REMARK  197  A    between atoms: _473  and  _474
REMARK  198  A    between atoms: _479  and  _481
REMARK  199  A    between atoms: _481  and  _482
REMARK  200  A    between atoms: _481  and  _484
REMARK  201  A    between atoms: _484  and  _485
REMARK  202  A    between atoms: _485  and  _486
REMARK  203  A    between atoms: _486  and  _487
REMARK  204  A    between atoms: _496  and  _498
REMARK  205  A    between atoms: _498  and  _499
REMARK  206  A    between atoms: _498  and  _501
REMARK  207  A    between atoms: _501  and  _502
REMARK  208  A    between atoms: _505  and  _507
REMARK  209  A    between atoms: _507  and  _508
REMARK  210  A    between atoms: _507  and  _510
REMARK  211  A    between atoms: _510  and  _511
REMARK  212  A    between atoms: _513  and  _515
REMARK  213  A    between atoms: _515  and  _516
REMARK  214  A    between atoms: _515  and  _518
REMARK  215  A    between atoms: _518  and  _519
REMARK  216  A    between atoms: _519  and  _520
REMARK  217  A    between atoms: _520  and  _521
REMARK  218  A    between atoms: _521  and  _522
REMARK  219  A    between atoms: _526  and  _528
REMARK  220  A    between atoms: _528  and  _529
REMARK  221  A    between atoms: _528  and  _531
REMARK  222  A    between atoms: _531  and  _532
REMARK  223  A    between atoms: _535  and  _537
REMARK  224  A    between atoms: _537  and  _538
REMARK  225  A    between atoms: _540  and  _542
REMARK  226  A    between atoms: _542  and  _543
REMARK  227  A    between atoms: _542  and  _545
REMARK  228  A    between atoms: _545  and  _546
REMARK  229  A    between atoms: _548  and  _550
REMARK  230  A    between atoms: _550  and  _551
REMARK  231  A    between atoms: _553  and  _555
REMARK  232  A    between atoms: _555  and  _556
REMARK  233  A    between atoms: _555  and  _558
REMARK  234  A    between atoms: _558  and  _559
REMARK  235  A    between atoms: _564  and  _566
REMARK  236  A    between atoms: _566  and  _567
REMARK  237  A    between atoms: _566  and  _569
REMARK  238  A    between atoms: _569  and  _570
REMARK  239  A    between atoms: _573  and  _575
REMARK  240  A    between atoms: _575  and  _576
REMARK  241  A    between atoms: _575  and  _578
REMARK  242  A    between atoms: _578  and  _579
REMARK  243  A    between atoms: _585  and  _587
REMARK  244  A    between atoms: _587  and  _588
REMARK  245  A    between atoms: _587  and  _590
REMARK  246  A    between atoms: _590  and  _591
REMARK  247  A    between atoms: _591  and  _592
REMARK  248  A    between atoms: _595  and  _597
REMARK  249  A    between atoms: _597  and  _598
REMARK  250  A    between atoms: _597  and  _600
REMARK  251  A    between atoms: _600  and  _601
REMARK  252  A    between atoms: _601  and  _602
REMARK  253  A    between atoms: _602  and  _603
REMARK  254  A    between atoms: _612  and  _614
REMARK  255  A    between atoms: _614  and  _615
REMARK  256  A    between atoms: _614  and  _617
REMARK  257  A    between atoms: _617  and  _618
REMARK  258  A    between atoms: _618  and  _619
REMARK  259  A    between atoms: _619  and  _620
REMARK  260  A    between atoms: _629  and  _631
REMARK  261  A    between atoms: _631  and  _632
REMARK  262  A    between atoms: _631  and  _634
REMARK  263  A    between atoms: _634  and  _635
REMARK  264  A    between atoms: _640  and  _641
REMARK  265  A    between atoms: _643  and  _645
REMARK  266  A    between atoms: _645  and  _646
REMARK  267  A    between atoms: _645  and  _648
REMARK  268  A    between atoms: _648  and  _649
REMARK  269  A    between atoms: _652  and  _654
REMARK  270  A    between atoms: _654  and  _655
REMARK  271  A    between atoms: _654  and  _657
REMARK  272  A    between atoms: _657  and  _658
REMARK  273  A    between atoms: _658  and  _659
REMARK  274  A    between atoms: _659  and  _660
REMARK  275  A    between atoms: _660  and  _661
REMARK  276  A    between atoms: _665  and  _667
REMARK  277  A    between atoms: _667  and  _668
REMARK  278  A    between atoms: _667  and  _670
REMARK  279  A    between atoms: _670  and  _671
REMARK  280  A    between atoms: _676  and  _678
REMARK  281  A    between atoms: _678  and  _679
REMARK  282  A    between atoms: _678  and  _681
REMARK  283  A    between atoms: _681  and  _682
REMARK  284  A    between atoms: _692  and  _694
REMARK  285  A    between atoms: _694  and  _695
REMARK  286  A    between atoms: _694  and  _697
REMARK  287  A    between atoms: _697  and  _698
REMARK  288  A    between atoms: _698  and  _699
REMARK  289  A    between atoms: _702  and  _704
REMARK  290  A    between atoms: _704  and  _705
REMARK  291  A    between atoms: _704  and  _707
REMARK  292  A    between atoms: _707  and  _708
REMARK  293  A    between atoms: _711  and  _713
REMARK  294  A    between atoms: _713  and  _714
REMARK  295  A    between atoms: _713  and  _716
REMARK  296  A    between atoms: _716  and  _717
REMARK  297  A    between atoms: _722  and  _724
REMARK  298  A    between atoms: _724  and  _725
REMARK  299  A    between atoms: _724  and  _727
REMARK  300  A    between atoms: _727  and  _728
REMARK  301  A    between atoms: _734  and  _736
REMARK  302  A    between atoms: _736  and  _737
REMARK  303  A    between atoms: _736  and  _739
REMARK  304  A    between atoms: _739  and  _740
REMARK  305  A    between atoms: _742  and  _744
REMARK  306  A    between atoms: _744  and  _745
REMARK  307  A    between atoms: _747  and  _749
REMARK  308  A    between atoms: _749  and  _750
REMARK  309  A    between atoms: _749  and  _752
REMARK  310  A    between atoms: _752  and  _753
REMARK  311  A    between atoms: _758  and  _759
REMARK  312  A    between atoms: _761  and  _763
REMARK  313  A    between atoms: _763  and  _764
REMARK  314  A    between atoms: _763  and  _766
REMARK  315  A    between atoms: _766  and  _767
REMARK  316  A    between atoms: _772  and  _773
REMARK  317  A    between atoms: _775  and  _777
REMARK  318  A    between atoms: _777  and  _778
REMARK  319  A    between atoms: _777  and  _780
REMARK  320  A    between atoms: _780  and  _781
REMARK  321  A    between atoms: _785  and  ZN_876
REMARK  322  A    between atoms: _786  and  _788
REMARK  323  A    between atoms: _788  and  _789
REMARK  324  A    between atoms: _788  and  _791
REMARK  325  A    between atoms: _791  and  _792
REMARK  326  A    between atoms: _792  and  _793
REMARK  327  A    between atoms: _796  and  _798
REMARK  328  A    between atoms: _798  and  _799
REMARK  329  A    between atoms: _798  and  _801
REMARK  330  A    between atoms: _801  and  _802
REMARK  331  A    between atoms: _802  and  _803
REMARK  332  A    between atoms: _803  and  _804
REMARK  333  A    between atoms: _813  and  _815
REMARK  334  A    between atoms: _815  and  _816
REMARK  335  A    between atoms: _815  and  _818
REMARK  336  A    between atoms: _818  and  _819
REMARK  337  A    between atoms: _824  and  _825
REMARK  338  A    between atoms: _827  and  _829
REMARK  339  A    between atoms: _829  and  _830
REMARK  340  A    between atoms: _829  and  _832
REMARK  341  A    between atoms: _832  and  _833
REMARK  342  A    between atoms: _838  and  _840
REMARK  343  A    between atoms: _840  and  _841
REMARK  344  A    between atoms: _840  and  _843
REMARK  345  A    between atoms: _843  and  _844
REMARK  346  A    between atoms: _844  and  _845
REMARK  347  A    between atoms: _845  and  _846
REMARK  348  A    between atoms: _846  and  _847
REMARK  349  A    between atoms: _851  and  _853
REMARK  350  A    between atoms: _853  and  _854
REMARK  351  A    between atoms: _853  and  _856
REMARK  352  A    between atoms: _856  and  _857
REMARK  353  A    between atoms: _862  and  _863
REMARK  354  A    between atoms: _865  and  _867
REMARK  355  A    between atoms: _867  and  _868
REMARK  356  A    between atoms: _871  and  _873
REMARK  357  A    between atoms: _873  and  _874
REMARK                            x       y       z     vdW  Elec       q    Type
REMARK                         _______ _______ _______ _____ _____    ______ ____
ROOT
ATOM      1  O   HOH     1      22.978  44.306  36.478  0.00  0.00    +0.000 OA
ENDROOT
TORSDOF 0
REMARK  Name = ../refined-set-2016/2xei/2xei_pocket.pdb
REMARK  357 active torsions:
REMARK  status: ('A' for Active; 'I' for Inactive)
REMARK    1  A    between atoms: _1  and  _3
REMARK    2  A    between atoms: _3  and  _4
REMARK    3  A    between atoms: _7  and  _9
REMARK    4  A    between atoms: _9  and  _10
REMARK    5  A    between atoms: _9  and  _12
REMARK    6  A    between atoms: _12  and  _13
REMARK    7  A    between atoms: _19  and  _21
REMARK    8  A    between atoms: _21  and  _22
REMARK    9  A    between atoms: _24  and  _26
REMARK   10  A    between atoms: _26  and  _27
REMARK   11  A    between atoms: _26  and  _29
REMARK   12  A    between atoms: _29  and  _30
REMARK   13  A    between atoms: _30  and  _31
REMARK   14  A    between atoms: _31  and  _32
REMARK   15  A    between atoms: _32  and  _33
REMARK   16  A    between atoms: _37  and  _39
REMARK   17  A    between atoms: _39  and  _40
REMARK   18  A    between atoms: _39  and  _42
REMARK   19  A    between atoms: _45  and  _47
REMARK   20  A    between atoms: _47  and  _48
REMARK   21  A    between atoms: _47  and  _50
REMARK   22  A    between atoms: _50  and  _51
REMARK   23  A    between atoms: _57  and  _59
REMARK   24  A    between atoms: _59  and  _60
REMARK   25  A    between atoms: _59  and  _62
REMARK   26  A    between atoms: _62  and  _63
REMARK   27  A    between atoms: _63  and  _64
REMARK   28  A    between atoms: _64  and  _65
REMARK   29  A    between atoms: _74  and  _76
REMARK   30  A    between atoms: _76  and  _77
REMARK   31  A    between atoms: _79  and  _81
REMARK   32  A    between atoms: _81  and  _82
REMARK   33  A    between atoms: _81  and  _84
REMARK   34  A    between atoms: _84  and  _85
REMARK   35  A    between atoms: _90  and  _91
REMARK   36  A    between atoms: _93  and  _95
REMARK   37  A    between atoms: _95  and  _96
REMARK   38  A    between atoms: _95  and  _98
REMARK   39  A    between atoms: _98  and  _99
REMARK   40  A    between atoms: _99  and  _100
REMARK   41  A    between atoms: _105  and  _107
REMARK   42  A    between atoms: _107  and  _108
REMARK   43  A    between atoms: _107  and  _110
REMARK   44  A    between atoms: _110  and  _111
REMARK   45  A    between atoms: _111  and  _112
REMARK   46  A    between atoms: _112  and  _113
REMARK   47  A    between atoms: _122  and  _124
REMARK   48  A    between atoms: _124  and  _125
REMARK   49  A    between atoms: _127  and  _129
REMARK   50  A    between atoms: _129  and  _130
REMARK   51  A    between atoms: _129  and  _132
REMARK   52  A    between atoms: _132  and  _133
REMARK   53  A    between atoms: _138  and  _140
REMARK   54  A    between atoms: _140  and  _141
REMARK   55  A    between atoms: _140  and  _143
REMARK   56  A    between atoms: _143  and  _144
REMARK   57  A    between atoms: _147  and  _149
REMARK   58  A    between atoms: _149  and  _150
REMARK   59  A    between atoms: _149  and  _152
REMARK   60  A    between atoms: _152  and  _153
REMARK   61  A    between atoms: _156  and  _158
REMARK   62  A    between atoms: _158  and  _159
REMARK   63  A    between atoms: _158  and  _161
REMARK   64  A    between atoms: _161  and  _162
REMARK   65  A    between atoms: _167  and  _169
REMARK   66  A    between atoms: _169  and  _170
REMARK   67  A    between atoms: _169  and  _172
REMARK   68  A    between atoms: _172  and  _173
REMARK   69  A    between atoms: _176  and  _178
REMARK   70  A    between atoms: _178  and  _179
REMARK   71  A    between atoms: _178  and  _181
REMARK   72  A    between atoms: _181  and  _182
REMARK   73  A    between atoms: _187  and  _189
REMARK   74  A    between atoms: _189  and  _190
REMARK   75  A    between atoms: _192  and  _194
REMARK   76  A    between atoms: _194  and  _195
REMARK   77  A    between atoms: _194  and  _197
REMARK   78  A    between atoms: _197  and  _198
REMARK   79  A    between atoms: _202  and  ZN_877
REMARK   80  A    between atoms: _203  and  _205
REMARK   81  A    between atoms: _205  and  _206
REMARK   82  A    between atoms: _205  and  _208
REMARK   83  A    between atoms: _208  and  _209
REMARK   84  A    between atoms: _212  and  _214
REMARK   85  A    between atoms: _214  and  _215
REMARK   86  A    between atoms: _214  and  _217
REMARK   87  A    between atoms: _217  and  _218
REMARK   88  A    between atoms: _228  and  _230
REMARK   89  A    between atoms: _230  and  _231
REMARK   90  A    between atoms: _230  and  _233
REMARK   91  A    between atoms: _233  and  _234
REMARK   92  A    between atoms: _237  and  _239
REMARK   93  A    between atoms: _239  and  _240
REMARK   94  A    between atoms: _239  and  _242
REMARK   95  A    between atoms: _242  and  _243
REMARK   96  A    between atoms: _243  and  _244
REMARK   97  A    between atoms: _243  and  _245
REMARK   98  A    between atoms: _244  and  ZN_877
REMARK   99  A    between atoms: _245  and  ZN_876
REMARK  100  A    between atoms: _247  and  _248
REMARK  101  A    between atoms: _253  and  _255
REMARK  102  A    between atoms: _255  and  _256
REMARK  103  A    between atoms: _259  and  _261
REMARK  104  A    between atoms: _261  and  _262
REMARK  105  A    between atoms: _261  and  _264
REMARK  106  A    between atoms: _264  and  _265
REMARK  107  A    between atoms: _265  and  _266
REMARK  108  A    between atoms: _269  and  _271
REMARK  109  A    between atoms: _271  and  _272
REMARK  110  A    between atoms: _271  and  _274
REMARK  111  A    between atoms: _274  and  _275
REMARK  112  A    between atoms: _275  and  _276
REMARK  113  A    between atoms: _276  and  _278
REMARK  114  A    between atoms: _278  and  ZN_876
REMARK  115  A    between atoms: _279  and  _281
REMARK  116  A    between atoms: _281  and  _282
REMARK  117  A    between atoms: _281  and  _284
REMARK  118  A    between atoms: _284  and  _285
REMARK  119  A    between atoms: _291  and  _293
REMARK  120  A    between atoms: _293  and  _294
REMARK  121  A    between atoms: _296  and  _298
REMARK  122  A    between atoms: _298  and  _299
REMARK  123  A    between atoms: _298  and  _301
REMARK  124  A    between atoms: _301  and  _302
REMARK  125  A    between atoms: _305  and  _307
REMARK  126  A    between atoms: _307  and  _308
REMARK  127  A    between atoms: _307  and  _310
REMARK  128  A    between atoms: _310  and  _311
REMARK  129  A    between atoms: _314  and  _316
REMARK  130  A    between atoms: _316  and  _317
REMARK  131  A    between atoms: _316  and  _319
REMARK  132  A    between atoms: _319  and  _320
REMARK  133  A    between atoms: _325  and  _327
REMARK  134  A    between atoms: _327  and  _328
REMARK  135  A    between atoms: _327  and  _330
REMARK  136  A    between atoms: _330  and  _331
REMARK  137  A    between atoms: _331  and  _333
REMARK  138  A    between atoms: _333  and  ZN_877
REMARK  139  A    between atoms: _334  and  _336
REMARK  140  A    between atoms: _336  and  _337
REMARK  141  A    between atoms: _336  and  _339
REMARK  142  A    between atoms: _339  and  _340
REMARK  143  A    between atoms: _342  and  _344
REMARK  144  A    between atoms: _344  and  _345
REMARK  145  A    between atoms: _344  and  _347
REMARK  146  A    between atoms: _347  and  _348
REMARK  147  A    between atoms: _350  and  _352
REMARK  148  A    between atoms: _352  and  _353
REMARK  149  A    between atoms: _352  and  _355
REMARK  150  A    between atoms: _355  and  _356
REMARK  151  A    between atoms: _359  and  _361
REMARK  152  A    between atoms: _361  and  _362
REMARK  153  A    between atoms: _361  and  _364
REMARK  154  A    between atoms: _364  and  _365
REMARK  155  A    between atoms: _365  and  _366
REMARK  156  A    between atoms: _369  and  _371
REMARK  157  A    between atoms: _371  and  _372
REMARK  158  A    between atoms: _371  and  _374
REMARK  159  A    between atoms: _374  and  _375
REMARK  160  A    between atoms: _380  and  _381
REMARK  161  A    between atoms: _383  and  _385
REMARK  162  A    between atoms: _385  and  _386
REMARK  163  A    between atoms: _385  and  _388
REMARK  164  A    between atoms: _388  and  _389
REMARK  165  A    between atoms: _392  and  _394
REMARK  166  A    between atoms: _394  and  _395
REMARK  167  A    between atoms: _394  and  _397
REMARK  168  A    between atoms: _397  and  _398
REMARK  169  A    between atoms: _401  and  _403
REMARK  170  A    between atoms: _403  and  _404
REMARK  171  A    between atoms: _403  and  _406
REMARK  172  A    between atoms: _406  and  _407
REMARK  173  A    between atoms: _407  and  _408
REMARK  174  A    between atoms: _408  and  _409
REMARK  175  A    between atoms: _418  and  _420
REMARK  176  A    between atoms: _420  and  _421
REMARK  177  A    between atoms: _420  and  _423
REMARK  178  A    between atoms: _426  and  _428
REMARK  179  A    between atoms: _428  and  _429
REMARK  180  A    between atoms: _428  and  _431
REMARK  181  A    between atoms: _431  and  _432
REMARK  182  A    between atoms: _435  and  _437
REMARK  183  A    between atoms: _437  and  _438
REMARK  184  A    between atoms: _437  and  _440
REMARK  185  A    between atoms: _440  and  _441
REMARK  186  A    between atoms: _451  and  _453
REMARK  187  A    between atoms: _453  and  _454
REMARK  188  A    between atoms: _453  and  _456
REMARK  189  A    between atoms: _456  and  _457
REMARK  190  A    between atoms: _457  and  _458
REMARK  191  A    between atoms: _458  and  _459
REMARK  192  A    between atoms: _459  and  _460
REMARK  193  A    between atoms: _464  and  _466
REMARK  194  A    between atoms: _466  and  _467
REMARK  195  A    between atoms: _466  and  _469
REMARK  196  A    between atoms: _469  and  _470
REMARK  197  A    between atoms: _473  and  _474
REMARK  198  A    between atoms: _479  and  _481
REMARK  199  A    between atoms: _481  and  _482
REMARK  200  A    between atoms: _481  and  _484
REMARK  201  A    between atoms: _484  and  _485
REMARK  202  A    between atoms: _485  and  _486
REMARK  203  A    between atoms: _486  and  _487
REMARK  204  A    between atoms: _496  and  _498
REMARK  205  A    between atoms: _498  and  _499
REMARK  206  A    between atoms: _498  and  _501
REMARK  207  A    between atoms: _501  and  _502
REMARK  208  A    between atoms: _505  and  _507
REMARK  209  A    between atoms: _507  and  _508
REMARK  210  A    between atoms: _507  and  _510
REMARK  211  A    between atoms: _510  and  _511
REMARK  212  A    between atoms: _513  and  _515
REMARK  213  A    between atoms: _515  and  _516
REMARK  214  A    between atoms: _515  and  _518
REMARK  215  A    between atoms: _518  and  _519
REMARK  216  A    between atoms: _519  and  _520
REMARK  217  A    between atoms: _520  and  _521
REMARK  218  A    between atoms: _521  and  _522
REMARK  219  A    between atoms: _526  and  _528
REMARK  220  A    between atoms: _528  and  _529
REMARK  221  A    between atoms: _528  and  _531
REMARK  222  A    between atoms: _531  and  _532
REMARK  223  A    between atoms: _535  and  _537
REMARK  224  A    between atoms: _537  and  _538
REMARK  225  A    between atoms: _540  and  _542
REMARK  226  A    between atoms: _542  and  _543
REMARK  227  A    between atoms: _542  and  _545
REMARK  228  A    between atoms: _545  and  _546
REMARK  229  A    between atoms: _548  and  _550
REMARK  230  A    between atoms: _550  and  _551
REMARK  231  A    between atoms: _553  and  _555
REMARK  232  A    between atoms: _555  and  _556
REMARK  233  A    between atoms: _555  and  _558
REMARK  234  A    between atoms: _558  and  _559
REMARK  235  A    between atoms: _564  and  _566
REMARK  236  A    between atoms: _566  and  _567
REMARK  237  A    between atoms: _566  and  _569
REMARK  238  A    between atoms: _569  and  _570
REMARK  239  A    between atoms: _573  and  _575
REMARK  240  A    between atoms: _575  and  _576
REMARK  241  A    between atoms: _575  and  _578
REMARK  242  A    between atoms: _578  and  _579
REMARK  243  A    between atoms: _585  and  _587
REMARK  244  A    between atoms: _587  and  _588
REMARK  245  A    between atoms: _587  and  _590
REMARK  246  A    between atoms: _590  and  _591
REMARK  247  A    between atoms: _591  and  _592
REMARK  248  A    between atoms: _595  and  _597
REMARK  249  A    between atoms: _597  and  _598
REMARK  250  A    between atoms: _597  and  _600
REMARK  251  A    between atoms: _600  and  _601
REMARK  252  A    between atoms: _601  and  _602
REMARK  253  A    between atoms: _602  and  _603
REMARK  254  A    between atoms: _612  and  _614
REMARK  255  A    between atoms: _614  and  _615
REMARK  256  A    between atoms: _614  and  _617
REMARK  257  A    between atoms: _617  and  _618
REMARK  258  A    between atoms: _618  and  _619
REMARK  259  A    between atoms: _619  and  _620
REMARK  260  A    between atoms: _629  and  _631
REMARK  261  A    between atoms: _631  and  _632
REMARK  262  A    between atoms: _631  and  _634
REMARK  263  A    between atoms: _634  and  _635
REMARK  264  A    between atoms: _640  and  _641
REMARK  265  A    between atoms: _643  and  _645
REMARK  266  A    between atoms: _645  and  _646
REMARK  267  A    between atoms: _645  and  _648
REMARK  268  A    between atoms: _648  and  _649
REMARK  269  A    between atoms: _652  and  _654
REMARK  270  A    between atoms: _654  and  _655
REMARK  271  A    between atoms: _654  and  _657
REMARK  272  A    between atoms: _657  and  _658
REMARK  273  A    between atoms: _658  and  _659
REMARK  274  A    between atoms: _659  and  _660
REMARK  275  A    between atoms: _660  and  _661
REMARK  276  A    between atoms: _665  and  _667
REMARK  277  A    between atoms: _667  and  _668
REMARK  278  A    between atoms: _667  and  _670
REMARK  279  A    between atoms: _670  and  _671
REMARK  280  A    between atoms: _676  and  _678
REMARK  281  A    between atoms: _678  and  _679
REMARK  282  A    between atoms: _678  and  _681
REMARK  283  A    between atoms: _681  and  _682
REMARK  284  A    between atoms: _692  and  _694
REMARK  285  A    between atoms: _694  and  _695
REMARK  286  A    between atoms: _694  and  _697
REMARK  287  A    between atoms: _697  and  _698
REMARK  288  A    between atoms: _698  and  _699
REMARK  289  A    between atoms: _702  and  _704
REMARK  290  A    between atoms: _704  and  _705
REMARK  291  A    between atoms: _704  and  _707
REMARK  292  A    between atoms: _707  and  _708
REMARK  293  A    between atoms: _711  and  _713
REMARK  294  A    between atoms: _713  and  _714
REMARK  295  A    between atoms: _713  and  _716
REMARK  296  A    between atoms: _716  and  _717
REMARK  297  A    between atoms: _722  and  _724
REMARK  298  A    between atoms: _724  and  _725
REMARK  299  A    between atoms: _724  and  _727
REMARK  300  A    between atoms: _727  and  _728
REMARK  301  A    between atoms: _734  and  _736
REMARK  302  A    between atoms: _736  and  _737
REMARK  303  A    between atoms: _736  and  _739
REMARK  304  A    between atoms: _739  and  _740
REMARK  305  A    between atoms: _742  and  _744
REMARK  306  A    between atoms: _744  and  _745
REMARK  307  A    between atoms: _747  and  _749
REMARK  308  A    between atoms: _749  and  _750
REMARK  309  A    between atoms: _749  and  _752
REMARK  310  A    between atoms: _752  and  _753
REMARK  311  A    between atoms: _758  and  _759
REMARK  312  A    between atoms: _761  and  _763
REMARK  313  A    between atoms: _763  and  _764
REMARK  314  A    between atoms: _763  and  _766
REMARK  315  A    between atoms: _766  and  _767
REMARK  316  A    between atoms: _772  and  _773
REMARK  317  A    between atoms: _775  and  _777
REMARK  318  A    between atoms: _777  and  _778
REMARK  319  A    between atoms: _777  and  _780
REMARK  320  A    between atoms: _780  and  _781
REMARK  321  A    between atoms: _785  and  ZN_876
REMARK  322  A    between atoms: _786  and  _788
REMARK  323  A    between atoms: _788  and  _789
REMARK  324  A    between atoms: _788  and  _791
REMARK  325  A    between atoms: _791  and  _792
REMARK  326  A    between atoms: _792  and  _793
REMARK  327  A    between atoms: _796  and  _798
REMARK  328  A    between atoms: _798  and  _799
REMARK  329  A    between atoms: _798  and  _801
REMARK  330  A    between atoms: _801  and  _802
REMARK  331  A    between atoms: _802  and  _803
REMARK  332  A    between atoms: _803  and  _804
REMARK  333  A    between atoms: _813  and  _815
REMARK  334  A    between atoms: _815  and  _816
REMARK  335  A    between atoms: _815  and  _818
REMARK  336  A    between atoms: _818  and  _819
REMARK  337  A    between atoms: _824  and  _825
REMARK  338  A    between atoms: _827  and  _829
REMARK  339  A    between atoms: _829  and  _830
REMARK  340  A    between atoms: _829  and  _832
REMARK  341  A    between atoms: _832  and  _833
REMARK  342  A    between atoms: _838  and  _840
REMARK  343  A    between atoms: _840  and  _841
REMARK  344  A    between atoms: _840  and  _843
REMARK  345  A    between atoms: _843  and  _844
REMARK  346  A    between atoms: _844  and  _845
REMARK  347  A    between atoms: _845  and  _846
REMARK  348  A    between atoms: _846  and  _847
REMARK  349  A    between atoms: _851  and  _853
REMARK  350  A    between atoms: _853  and  _854
REMARK  351  A    between atoms: _853  and  _856
REMARK  352  A    between atoms: _856  and  _857
REMARK  353  A    between atoms: _862  and  _863
REMARK  354  A    between atoms: _865  and  _867
REMARK  355  A    between atoms: _867  and  _868
REMARK  356  A    between atoms: _871  and  _873
REMARK  357  A    between atoms: _873  and  _874
REMARK                            x       y       z     vdW  Elec       q    Type
REMARK                         _______ _______ _______ _____ _____    ______ ____
ROOT
ATOM      1  O   HOH     1      14.858  52.647  34.581  0.00  0.00    +0.000 OA
ENDROOT
TORSDOF 0
REMARK  Name = ../refined-set-2016/2xei/2xei_pocket.pdb
REMARK  357 active torsions:
REMARK  status: ('A' for Active; 'I' for Inactive)
REMARK    1  A    between atoms: _1  and  _3
REMARK    2  A    between atoms: _3  and  _4
REMARK    3  A    between atoms: _7  and  _9
REMARK    4  A    between atoms: _9  and  _10
REMARK    5  A    between atoms: _9  and  _12
REMARK    6  A    between atoms: _12  and  _13
REMARK    7  A    between atoms: _19  and  _21
REMARK    8  A    between atoms: _21  and  _22
REMARK    9  A    between atoms: _24  and  _26
REMARK   10  A    between atoms: _26  and  _27
REMARK   11  A    between atoms: _26  and  _29
REMARK   12  A    between atoms: _29  and  _30
REMARK   13  A    between atoms: _30  and  _31
REMARK   14  A    between atoms: _31  and  _32
REMARK   15  A    between atoms: _32  and  _33
REMARK   16  A    between atoms: _37  and  _39
REMARK   17  A    between atoms: _39  and  _40
REMARK   18  A    between atoms: _39  and  _42
REMARK   19  A    between atoms: _45  and  _47
REMARK   20  A    between atoms: _47  and  _48
REMARK   21  A    between atoms: _47  and  _50
REMARK   22  A    between atoms: _50  and  _51
REMARK   23  A    between atoms: _57  and  _59
REMARK   24  A    between atoms: _59  and  _60
REMARK   25  A    between atoms: _59  and  _62
REMARK   26  A    between atoms: _62  and  _63
REMARK   27  A    between atoms: _63  and  _64
REMARK   28  A    between atoms: _64  and  _65
REMARK   29  A    between atoms: _74  and  _76
REMARK   30  A    between atoms: _76  and  _77
REMARK   31  A    between atoms: _79  and  _81
REMARK   32  A    between atoms: _81  and  _82
REMARK   33  A    between atoms: _81  and  _84
REMARK   34  A    between atoms: _84  and  _85
REMARK   35  A    between atoms: _90  and  _91
REMARK   36  A    between atoms: _93  and  _95
REMARK   37  A    between atoms: _95  and  _96
REMARK   38  A    between atoms: _95  and  _98
REMARK   39  A    between atoms: _98  and  _99
REMARK   40  A    between atoms: _99  and  _100
REMARK   41  A    between atoms: _105  and  _107
REMARK   42  A    between atoms: _107  and  _108
REMARK   43  A    between atoms: _107  and  _110
REMARK   44  A    between atoms: _110  and  _111
REMARK   45  A    between atoms: _111  and  _112
REMARK   46  A    between atoms: _112  and  _113
REMARK   47  A    between atoms: _122  and  _124
REMARK   48  A    between atoms: _124  and  _125
REMARK   49  A    between atoms: _127  and  _129
REMARK   50  A    between atoms: _129  and  _130
REMARK   51  A    between atoms: _129  and  _132
REMARK   52  A    between atoms: _132  and  _133
REMARK   53  A    between atoms: _138  and  _140
REMARK   54  A    between atoms: _140  and  _141
REMARK   55  A    between atoms: _140  and  _143
REMARK   56  A    between atoms: _143  and  _144
REMARK   57  A    between atoms: _147  and  _149
REMARK   58  A    between atoms: _149  and  _150
REMARK   59  A    between atoms: _149  and  _152
REMARK   60  A    between atoms: _152  and  _153
REMARK   61  A    between atoms: _156  and  _158
REMARK   62  A    between atoms: _158  and  _159
REMARK   63  A    between atoms: _158  and  _161
REMARK   64  A    between atoms: _161  and  _162
REMARK   65  A    between atoms: _167  and  _169
REMARK   66  A    between atoms: _169  and  _170
REMARK   67  A    between atoms: _169  and  _172
REMARK   68  A    between atoms: _172  and  _173
REMARK   69  A    between atoms: _176  and  _178
REMARK   70  A    between atoms: _178  and  _179
REMARK   71  A    between atoms: _178  and  _181
REMARK   72  A    between atoms: _181  and  _182
REMARK   73  A    between atoms: _187  and  _189
REMARK   74  A    between atoms: _189  and  _190
REMARK   75  A    between atoms: _192  and  _194
REMARK   76  A    between atoms: _194  and  _195
REMARK   77  A    between atoms: _194  and  _197
REMARK   78  A    between atoms: _197  and  _198
REMARK   79  A    between atoms: _202  and  ZN_877
REMARK   80  A    between atoms: _203  and  _205
REMARK   81  A    between atoms: _205  and  _206
REMARK   82  A    between atoms: _205  and  _208
REMARK   83  A    between atoms: _208  and  _209
REMARK   84  A    between atoms: _212  and  _214
REMARK   85  A    between atoms: _214  and  _215
REMARK   86  A    between atoms: _214  and  _217
REMARK   87  A    between atoms: _217  and  _218
REMARK   88  A    between atoms: _228  and  _230
REMARK   89  A    between atoms: _230  and  _231
REMARK   90  A    between atoms: _230  and  _233
REMARK   91  A    between atoms: _233  and  _234
REMARK   92  A    between atoms: _237  and  _239
REMARK   93  A    between atoms: _239  and  _240
REMARK   94  A    between atoms: _239  and  _242
REMARK   95  A    between atoms: _242  and  _243
REMARK   96  A    between atoms: _243  and  _244
REMARK   97  A    between atoms: _243  and  _245
REMARK   98  A    between atoms: _244  and  ZN_877
REMARK   99  A    between atoms: _245  and  ZN_876
REMARK  100  A    between atoms: _247  and  _248
REMARK  101  A    between atoms: _253  and  _255
REMARK  102  A    between atoms: _255  and  _256
REMARK  103  A    between atoms: _259  and  _261
REMARK  104  A    between atoms: _261  and  _262
REMARK  105  A    between atoms: _261  and  _264
REMARK  106  A    between atoms: _264  and  _265
REMARK  107  A    between atoms: _265  and  _266
REMARK  108  A    between atoms: _269  and  _271
REMARK  109  A    between atoms: _271  and  _272
REMARK  110  A    between atoms: _271  and  _274
REMARK  111  A    between atoms: _274  and  _275
REMARK  112  A    between atoms: _275  and  _276
REMARK  113  A    between atoms: _276  and  _278
REMARK  114  A    between atoms: _278  and  ZN_876
REMARK  115  A    between atoms: _279  and  _281
REMARK  116  A    between atoms: _281  and  _282
REMARK  117  A    between atoms: _281  and  _284
REMARK  118  A    between atoms: _284  and  _285
REMARK  119  A    between atoms: _291  and  _293
REMARK  120  A    between atoms: _293  and  _294
REMARK  121  A    between atoms: _296  and  _298
REMARK  122  A    between atoms: _298  and  _299
REMARK  123  A    between atoms: _298  and  _301
REMARK  124  A    between atoms: _301  and  _302
REMARK  125  A    between atoms: _305  and  _307
REMARK  126  A    between atoms: _307  and  _308
REMARK  127  A    between atoms: _307  and  _310
REMARK  128  A    between atoms: _310  and  _311
REMARK  129  A    between atoms: _314  and  _316
REMARK  130  A    between atoms: _316  and  _317
REMARK  131  A    between atoms: _316  and  _319
REMARK  132  A    between atoms: _319  and  _320
REMARK  133  A    between atoms: _325  and  _327
REMARK  134  A    between atoms: _327  and  _328
REMARK  135  A    between atoms: _327  and  _330
REMARK  136  A    between atoms: _330  and  _331
REMARK  137  A    between atoms: _331  and  _333
REMARK  138  A    between atoms: _333  and  ZN_877
REMARK  139  A    between atoms: _334  and  _336
REMARK  140  A    between atoms: _336  and  _337
REMARK  141  A    between atoms: _336  and  _339
REMARK  142  A    between atoms: _339  and  _340
REMARK  143  A    between atoms: _342  and  _344
REMARK  144  A    between atoms: _344  and  _345
REMARK  145  A    between atoms: _344  and  _347
REMARK  146  A    between atoms: _347  and  _348
REMARK  147  A    between atoms: _350  and  _352
REMARK  148  A    between atoms: _352  and  _353
REMARK  149  A    between atoms: _352  and  _355
REMARK  150  A    between atoms: _355  and  _356
REMARK  151  A    between atoms: _359  and  _361
REMARK  152  A    between atoms: _361  and  _362
REMARK  153  A    between atoms: _361  and  _364
REMARK  154  A    between atoms: _364  and  _365
REMARK  155  A    between atoms: _365  and  _366
REMARK  156  A    between atoms: _369  and  _371
REMARK  157  A    between atoms: _371  and  _372
REMARK  158  A    between atoms: _371  and  _374
REMARK  159  A    between atoms: _374  and  _375
REMARK  160  A    between atoms: _380  and  _381
REMARK  161  A    between atoms: _383  and  _385
REMARK  162  A    between atoms: _385  and  _386
REMARK  163  A    between atoms: _385  and  _388
REMARK  164  A    between atoms: _388  and  _389
REMARK  165  A    between atoms: _392  and  _394
REMARK  166  A    between atoms: _394  and  _395
REMARK  167  A    between atoms: _394  and  _397
REMARK  168  A    between atoms: _397  and  _398
REMARK  169  A    between atoms: _401  and  _403
REMARK  170  A    between atoms: _403  and  _404
REMARK  171  A    between atoms: _403  and  _406
REMARK  172  A    between atoms: _406  and  _407
REMARK  173  A    between atoms: _407  and  _408
REMARK  174  A    between atoms: _408  and  _409
REMARK  175  A    between atoms: _418  and  _420
REMARK  176  A    between atoms: _420  and  _421
REMARK  177  A    between atoms: _420  and  _423
REMARK  178  A    between atoms: _426  and  _428
REMARK  179  A    between atoms: _428  and  _429
REMARK  180  A    between atoms: _428  and  _431
REMARK  181  A    between atoms: _431  and  _432
REMARK  182  A    between atoms: _435  and  _437
REMARK  183  A    between atoms: _437  and  _438
REMARK  184  A    between atoms: _437  and  _440
REMARK  185  A    between atoms: _440  and  _441
REMARK  186  A    between atoms: _451  and  _453
REMARK  187  A    between atoms: _453  and  _454
REMARK  188  A    between atoms: _453  and  _456
REMARK  189  A    between atoms: _456  and  _457
REMARK  190  A    between atoms: _457  and  _458
REMARK  191  A    between atoms: _458  and  _459
REMARK  192  A    between atoms: _459  and  _460
REMARK  193  A    between atoms: _464  and  _466
REMARK  194  A    between atoms: _466  and  _467
REMARK  195  A    between atoms: _466  and  _469
REMARK  196  A    between atoms: _469  and  _470
REMARK  197  A    between atoms: _473  and  _474
REMARK  198  A    between atoms: _479  and  _481
REMARK  199  A    between atoms: _481  and  _482
REMARK  200  A    between atoms: _481  and  _484
REMARK  201  A    between atoms: _484  and  _485
REMARK  202  A    between atoms: _485  and  _486
REMARK  203  A    between atoms: _486  and  _487
REMARK  204  A    between atoms: _496  and  _498
REMARK  205  A    between atoms: _498  and  _499
REMARK  206  A    between atoms: _498  and  _501
REMARK  207  A    between atoms: _501  and  _502
REMARK  208  A    between atoms: _505  and  _507
REMARK  209  A    between atoms: _507  and  _508
REMARK  210  A    between atoms: _507  and  _510
REMARK  211  A    between atoms: _510  and  _511
REMARK  212  A    between atoms: _513  and  _515
REMARK  213  A    between atoms: _515  and  _516
REMARK  214  A    between atoms: _515  and  _518
REMARK  215  A    between atoms: _518  and  _519
REMARK  216  A    between atoms: _519  and  _520
REMARK  217  A    between atoms: _520  and  _521
REMARK  218  A    between atoms: _521  and  _522
REMARK  219  A    between atoms: _526  and  _528
REMARK  220  A    between atoms: _528  and  _529
REMARK  221  A    between atoms: _528  and  _531
REMARK  222  A    between atoms: _531  and  _532
REMARK  223  A    between atoms: _535  and  _537
REMARK  224  A    between atoms: _537  and  _538
REMARK  225  A    between atoms: _540  and  _542
REMARK  226  A    between atoms: _542  and  _543
REMARK  227  A    between atoms: _542  and  _545
REMARK  228  A    between atoms: _545  and  _546
REMARK  229  A    between atoms: _548  and  _550
REMARK  230  A    between atoms: _550  and  _551
REMARK  231  A    between atoms: _553  and  _555
REMARK  232  A    between atoms: _555  and  _556
REMARK  233  A    between atoms: _555  and  _558
REMARK  234  A    between atoms: _558  and  _559
REMARK  235  A    between atoms: _564  and  _566
REMARK  236  A    between atoms: _566  and  _567
REMARK  237  A    between atoms: _566  and  _569
REMARK  238  A    between atoms: _569  and  _570
REMARK  239  A    between atoms: _573  and  _575
REMARK  240  A    between atoms: _575  and  _576
REMARK  241  A    between atoms: _575  and  _578
REMARK  242  A    between atoms: _578  and  _579
REMARK  243  A    between atoms: _585  and  _587
REMARK  244  A    between atoms: _587  and  _588
REMARK  245  A    between atoms: _587  and  _590
REMARK  246  A    between atoms: _590  and  _591
REMARK  247  A    between atoms: _591  and  _592
REMARK  248  A    between atoms: _595  and  _597
REMARK  249  A    between atoms: _597  and  _598
REMARK  250  A    between atoms: _597  and  _600
REMARK  251  A    between atoms: _600  and  _601
REMARK  252  A    between atoms: _601  and  _602
REMARK  253  A    between atoms: _602  and  _603
REMARK  254  A    between atoms: _612  and  _614
REMARK  255  A    between atoms: _614  and  _615
REMARK  256  A    between atoms: _614  and  _617
REMARK  257  A    between atoms: _617  and  _618
REMARK  258  A    between atoms: _618  and  _619
REMARK  259  A    between atoms: _619  and  _620
REMARK  260  A    between atoms: _629  and  _631
REMARK  261  A    between atoms: _631  and  _632
REMARK  262  A    between atoms: _631  and  _634
REMARK  263  A    between atoms: _634  and  _635
REMARK  264  A    between atoms: _640  and  _641
REMARK  265  A    between atoms: _643  and  _645
REMARK  266  A    between atoms: _645  and  _646
REMARK  267  A    between atoms: _645  and  _648
REMARK  268  A    between atoms: _648  and  _649
REMARK  269  A    between atoms: _652  and  _654
REMARK  270  A    between atoms: _654  and  _655
REMARK  271  A    between atoms: _654  and  _657
REMARK  272  A    between atoms: _657  and  _658
REMARK  273  A    between atoms: _658  and  _659
REMARK  274  A    between atoms: _659  and  _660
REMARK  275  A    between atoms: _660  and  _661
REMARK  276  A    between atoms: _665  and  _667
REMARK  277  A    between atoms: _667  and  _668
REMARK  278  A    between atoms: _667  and  _670
REMARK  279  A    between atoms: _670  and  _671
REMARK  280  A    between atoms: _676  and  _678
REMARK  281  A    between atoms: _678  and  _679
REMARK  282  A    between atoms: _678  and  _681
REMARK  283  A    between atoms: _681  and  _682
REMARK  284  A    between atoms: _692  and  _694
REMARK  285  A    between atoms: _694  and  _695
REMARK  286  A    between atoms: _694  and  _697
REMARK  287  A    between atoms: _697  and  _698
REMARK  288  A    between atoms: _698  and  _699
REMARK  289  A    between atoms: _702  and  _704
REMARK  290  A    between atoms: _704  and  _705
REMARK  291  A    between atoms: _704  and  _707
REMARK  292  A    between atoms: _707  and  _708
REMARK  293  A    between atoms: _711  and  _713
REMARK  294  A    between atoms: _713  and  _714
REMARK  295  A    between atoms: _713  and  _716
REMARK  296  A    between atoms: _716  and  _717
REMARK  297  A    between atoms: _722  and  _724
REMARK  298  A    between atoms: _724  and  _725
REMARK  299  A    between atoms: _724  and  _727
REMARK  300  A    between atoms: _727  and  _728
REMARK  301  A    between atoms: _734  and  _736
REMARK  302  A    between atoms: _736  and  _737
REMARK  303  A    between atoms: _736  and  _739
REMARK  304  A    between atoms: _739  and  _740
REMARK  305  A    between atoms: _742  and  _744
REMARK  306  A    between atoms: _744  and  _745
REMARK  307  A    between atoms: _747  and  _749
REMARK  308  A    between atoms: _749  and  _750
REMARK  309  A    between atoms: _749  and  _752
REMARK  310  A    between atoms: _752  and  _753
REMARK  311  A    between atoms: _758  and  _759
REMARK  312  A    between atoms: _761  and  _763
REMARK  313  A    between atoms: _763  and  _764
REMARK  314  A    between atoms: _763  and  _766
REMARK  315  A    between atoms: _766  and  _767
REMARK  316  A    between atoms: _772  and  _773
REMARK  317  A    between atoms: _775  and  _777
REMARK  318  A    between atoms: _777  and  _778
REMARK  319  A    between atoms: _777  and  _780
REMARK  320  A    between atoms: _780  and  _781
REMARK  321  A    between atoms: _785  and  ZN_876
REMARK  322  A    between atoms: _786  and  _788
REMARK  323  A    between atoms: _788  and  _789
REMARK  324  A    between atoms: _788  and  _791
REMARK  325  A    between atoms: _791  and  _792
REMARK  326  A    between atoms: _792  and  _793
REMARK  327  A    between atoms: _796  and  _798
REMARK  328  A    between atoms: _798  and  _799
REMARK  329  A    between atoms: _798  and  _801
REMARK  330  A    between atoms: _801  and  _802
REMARK  331  A    between atoms: _802  and  _803
REMARK  332  A    between atoms: _803  and  _804
REMARK  333  A    between atoms: _813  and  _815
REMARK  334  A    between atoms: _815  and  _816
REMARK  335  A    between atoms: _815  and  _818
REMARK  336  A    between atoms: _818  and  _819
REMARK  337  A    between atoms: _824  and  _825
REMARK  338  A    between atoms: _827  and  _829
REMARK  339  A    between atoms: _829  and  _830
REMARK  340  A    between atoms: _829  and  _832
REMARK  341  A    between atoms: _832  and  _833
REMARK  342  A    between atoms: _838  and  _840
REMARK  343  A    between atoms: _840  and  _841
REMARK  344  A    between atoms: _840  and  _843
REMARK  345  A    between atoms: _843  and  _844
REMARK  346  A    between atoms: _844  and  _845
REMARK  347  A    between atoms: _845  and  _846
REMARK  348  A    between atoms: _846  and  _847
REMARK  349  A    between atoms: _851  and  _853
REMARK  350  A    between atoms: _853  and  _854
REMARK  351  A    between atoms: _853  and  _856
REMARK  352  A    between atoms: _856  and  _857
REMARK  353  A    between atoms: _862  and  _863
REMARK  354  A    between atoms: _865  and  _867
REMARK  355  A    between atoms: _867  and  _868
REMARK  356  A    between atoms: _871  and  _873
REMARK  357  A    between atoms: _873  and  _874
REMARK                            x       y       z     vdW  Elec       q    Type
REMARK                         _______ _______ _______ _____ _____    ______ ____
ROOT
ATOM      1  O   HOH     1      12.540  53.217  35.936  0.00  0.00    +0.000 OA
ENDROOT
TORSDOF 0
REMARK  Name = ../refined-set-2016/2xei/2xei_pocket.pdb
REMARK  357 active torsions:
REMARK  status: ('A' for Active; 'I' for Inactive)
REMARK    1  A    between atoms: _1  and  _3
REMARK    2  A    between atoms: _3  and  _4
REMARK    3  A    between atoms: _7  and  _9
REMARK    4  A    between atoms: _9  and  _10
REMARK    5  A    between atoms: _9  and  _12
REMARK    6  A    between atoms: _12  and  _13
REMARK    7  A    between atoms: _19  and  _21
REMARK    8  A    between atoms: _21  and  _22
REMARK    9  A    between atoms: _24  and  _26
REMARK   10  A    between atoms: _26  and  _27
REMARK   11  A    between atoms: _26  and  _29
REMARK   12  A    between atoms: _29  and  _30
REMARK   13  A    between atoms: _30  and  _31
REMARK   14  A    between atoms: _31  and  _32
REMARK   15  A    between atoms: _32  and  _33
REMARK   16  A    between atoms: _37  and  _39
REMARK   17  A    between atoms: _39  and  _40
REMARK   18  A    between atoms: _39  and  _42
REMARK   19  A    between atoms: _45  and  _47
REMARK   20  A    between atoms: _47  and  _48
REMARK   21  A    between atoms: _47  and  _50
REMARK   22  A    between atoms: _50  and  _51
REMARK   23  A    between atoms: _57  and  _59
REMARK   24  A    between atoms: _59  and  _60
REMARK   25  A    between atoms: _59  and  _62
REMARK   26  A    between atoms: _62  and  _63
REMARK   27  A    between atoms: _63  and  _64
REMARK   28  A    between atoms: _64  and  _65
REMARK   29  A    between atoms: _74  and  _76
REMARK   30  A    between atoms: _76  and  _77
REMARK   31  A    between atoms: _79  and  _81
REMARK   32  A    between atoms: _81  and  _82
REMARK   33  A    between atoms: _81  and  _84
REMARK   34  A    between atoms: _84  and  _85
REMARK   35  A    between atoms: _90  and  _91
REMARK   36  A    between atoms: _93  and  _95
REMARK   37  A    between atoms: _95  and  _96
REMARK   38  A    between atoms: _95  and  _98
REMARK   39  A    between atoms: _98  and  _99
REMARK   40  A    between atoms: _99  and  _100
REMARK   41  A    between atoms: _105  and  _107
REMARK   42  A    between atoms: _107  and  _108
REMARK   43  A    between atoms: _107  and  _110
REMARK   44  A    between atoms: _110  and  _111
REMARK   45  A    between atoms: _111  and  _112
REMARK   46  A    between atoms: _112  and  _113
REMARK   47  A    between atoms: _122  and  _124
REMARK   48  A    between atoms: _124  and  _125
REMARK   49  A    between atoms: _127  and  _129
REMARK   50  A    between atoms: _129  and  _130
REMARK   51  A    between atoms: _129  and  _132
REMARK   52  A    between atoms: _132  and  _133
REMARK   53  A    between atoms: _138  and  _140
REMARK   54  A    between atoms: _140  and  _141
REMARK   55  A    between atoms: _140  and  _143
REMARK   56  A    between atoms: _143  and  _144
REMARK   57  A    between atoms: _147  and  _149
REMARK   58  A    between atoms: _149  and  _150
REMARK   59  A    between atoms: _149  and  _152
REMARK   60  A    between atoms: _152  and  _153
REMARK   61  A    between atoms: _156  and  _158
REMARK   62  A    between atoms: _158  and  _159
REMARK   63  A    between atoms: _158  and  _161
REMARK   64  A    between atoms: _161  and  _162
REMARK   65  A    between atoms: _167  and  _169
REMARK   66  A    between atoms: _169  and  _170
REMARK   67  A    between atoms: _169  and  _172
REMARK   68  A    between atoms: _172  and  _173
REMARK   69  A    between atoms: _176  and  _178
REMARK   70  A    between atoms: _178  and  _179
REMARK   71  A    between atoms: _178  and  _181
REMARK   72  A    between atoms: _181  and  _182
REMARK   73  A    between atoms: _187  and  _189
REMARK   74  A    between atoms: _189  and  _190
REMARK   75  A    between atoms: _192  and  _194
REMARK   76  A    between atoms: _194  and  _195
REMARK   77  A    between atoms: _194  and  _197
REMARK   78  A    between atoms: _197  and  _198
REMARK   79  A    between atoms: _202  and  ZN_877
REMARK   80  A    between atoms: _203  and  _205
REMARK   81  A    between atoms: _205  and  _206
REMARK   82  A    between atoms: _205  and  _208
REMARK   83  A    between atoms: _208  and  _209
REMARK   84  A    between atoms: _212  and  _214
REMARK   85  A    between atoms: _214  and  _215
REMARK   86  A    between atoms: _214  and  _217
REMARK   87  A    between atoms: _217  and  _218
REMARK   88  A    between atoms: _228  and  _230
REMARK   89  A    between atoms: _230  and  _231
REMARK   90  A    between atoms: _230  and  _233
REMARK   91  A    between atoms: _233  and  _234
REMARK   92  A    between atoms: _237  and  _239
REMARK   93  A    between atoms: _239  and  _240
REMARK   94  A    between atoms: _239  and  _242
REMARK   95  A    between atoms: _242  and  _243
REMARK   96  A    between atoms: _243  and  _244
REMARK   97  A    between atoms: _243  and  _245
REMARK   98  A    between atoms: _244  and  ZN_877
REMARK   99  A    between atoms: _245  and  ZN_876
REMARK  100  A    between atoms: _247  and  _248
REMARK  101  A    between atoms: _253  and  _255
REMARK  102  A    between atoms: _255  and  _256
REMARK  103  A    between atoms: _259  and  _261
REMARK  104  A    between atoms: _261  and  _262
REMARK  105  A    between atoms: _261  and  _264
REMARK  106  A    between atoms: _264  and  _265
REMARK  107  A    between atoms: _265  and  _266
REMARK  108  A    between atoms: _269  and  _271
REMARK  109  A    between atoms: _271  and  _272
REMARK  110  A    between atoms: _271  and  _274
REMARK  111  A    between atoms: _274  and  _275
REMARK  112  A    between atoms: _275  and  _276
REMARK  113  A    between atoms: _276  and  _278
REMARK  114  A    between atoms: _278  and  ZN_876
REMARK  115  A    between atoms: _279  and  _281
REMARK  116  A    between atoms: _281  and  _282
REMARK  117  A    between atoms: _281  and  _284
REMARK  118  A    between atoms: _284  and  _285
REMARK  119  A    between atoms: _291  and  _293
REMARK  120  A    between atoms: _293  and  _294
REMARK  121  A    between atoms: _296  and  _298
REMARK  122  A    between atoms: _298  and  _299
REMARK  123  A    between atoms: _298  and  _301
REMARK  124  A    between atoms: _301  and  _302
REMARK  125  A    between atoms: _305  and  _307
REMARK  126  A    between atoms: _307  and  _308
REMARK  127  A    between atoms: _307  and  _310
REMARK  128  A    between atoms: _310  and  _311
REMARK  129  A    between atoms: _314  and  _316
REMARK  130  A    between atoms: _316  and  _317
REMARK  131  A    between atoms: _316  and  _319
REMARK  132  A    between atoms: _319  and  _320
REMARK  133  A    between atoms: _325  and  _327
REMARK  134  A    between atoms: _327  and  _328
REMARK  135  A    between atoms: _327  and  _330
REMARK  136  A    between atoms: _330  and  _331
REMARK  137  A    between atoms: _331  and  _333
REMARK  138  A    between atoms: _333  and  ZN_877
REMARK  139  A    between atoms: _334  and  _336
REMARK  140  A    between atoms: _336  and  _337
REMARK  141  A    between atoms: _336  and  _339
REMARK  142  A    between atoms: _339  and  _340
REMARK  143  A    between atoms: _342  and  _344
REMARK  144  A    between atoms: _344  and  _345
REMARK  145  A    between atoms: _344  and  _347
REMARK  146  A    between atoms: _347  and  _348
REMARK  147  A    between atoms: _350  and  _352
REMARK  148  A    between atoms: _352  and  _353
REMARK  149  A    between atoms: _352  and  _355
REMARK  150  A    between atoms: _355  and  _356
REMARK  151  A    between atoms: _359  and  _361
REMARK  152  A    between atoms: _361  and  _362
REMARK  153  A    between atoms: _361  and  _364
REMARK  154  A    between atoms: _364  and  _365
REMARK  155  A    between atoms: _365  and  _366
REMARK  156  A    between atoms: _369  and  _371
REMARK  157  A    between atoms: _371  and  _372
REMARK  158  A    between atoms: _371  and  _374
REMARK  159  A    between atoms: _374  and  _375
REMARK  160  A    between atoms: _380  and  _381
REMARK  161  A    between atoms: _383  and  _385
REMARK  162  A    between atoms: _385  and  _386
REMARK  163  A    between atoms: _385  and  _388
REMARK  164  A    between atoms: _388  and  _389
REMARK  165  A    between atoms: _392  and  _394
REMARK  166  A    between atoms: _394  and  _395
REMARK  167  A    between atoms: _394  and  _397
REMARK  168  A    between atoms: _397  and  _398
REMARK  169  A    between atoms: _401  and  _403
REMARK  170  A    between atoms: _403  and  _404
REMARK  171  A    between atoms: _403  and  _406
REMARK  172  A    between atoms: _406  and  _407
REMARK  173  A    between atoms: _407  and  _408
REMARK  174  A    between atoms: _408  and  _409
REMARK  175  A    between atoms: _418  and  _420
REMARK  176  A    between atoms: _420  and  _421
REMARK  177  A    between atoms: _420  and  _423
REMARK  178  A    between atoms: _426  and  _428
REMARK  179  A    between atoms: _428  and  _429
REMARK  180  A    between atoms: _428  and  _431
REMARK  181  A    between atoms: _431  and  _432
REMARK  182  A    between atoms: _435  and  _437
REMARK  183  A    between atoms: _437  and  _438
REMARK  184  A    between atoms: _437  and  _440
REMARK  185  A    between atoms: _440  and  _441
REMARK  186  A    between atoms: _451  and  _453
REMARK  187  A    between atoms: _453  and  _454
REMARK  188  A    between atoms: _453  and  _456
REMARK  189  A    between atoms: _456  and  _457
REMARK  190  A    between atoms: _457  and  _458
REMARK  191  A    between atoms: _458  and  _459
REMARK  192  A    between atoms: _459  and  _460
REMARK  193  A    between atoms: _464  and  _466
REMARK  194  A    between atoms: _466  and  _467
REMARK  195  A    between atoms: _466  and  _469
REMARK  196  A    between atoms: _469  and  _470
REMARK  197  A    between atoms: _473  and  _474
REMARK  198  A    between atoms: _479  and  _481
REMARK  199  A    between atoms: _481  and  _482
REMARK  200  A    between atoms: _481  and  _484
REMARK  201  A    between atoms: _484  and  _485
REMARK  202  A    between atoms: _485  and  _486
REMARK  203  A    between atoms: _486  and  _487
REMARK  204  A    between atoms: _496  and  _498
REMARK  205  A    between atoms: _498  and  _499
REMARK  206  A    between atoms: _498  and  _501
REMARK  207  A    between atoms: _501  and  _502
REMARK  208  A    between atoms: _505  and  _507
REMARK  209  A    between atoms: _507  and  _508
REMARK  210  A    between atoms: _507  and  _510
REMARK  211  A    between atoms: _510  and  _511
REMARK  212  A    between atoms: _513  and  _515
REMARK  213  A    between atoms: _515  and  _516
REMARK  214  A    between atoms: _515  and  _518
REMARK  215  A    between atoms: _518  and  _519
REMARK  216  A    between atoms: _519  and  _520
REMARK  217  A    between atoms: _520  and  _521
REMARK  218  A    between atoms: _521  and  _522
REMARK  219  A    between atoms: _526  and  _528
REMARK  220  A    between atoms: _528  and  _529
REMARK  221  A    between atoms: _528  and  _531
REMARK  222  A    between atoms: _531  and  _532
REMARK  223  A    between atoms: _535  and  _537
REMARK  224  A    between atoms: _537  and  _538
REMARK  225  A    between atoms: _540  and  _542
REMARK  226  A    between atoms: _542  and  _543
REMARK  227  A    between atoms: _542  and  _545
REMARK  228  A    between atoms: _545  and  _546
REMARK  229  A    between atoms: _548  and  _550
REMARK  230  A    between atoms: _550  and  _551
REMARK  231  A    between atoms: _553  and  _555
REMARK  232  A    between atoms: _555  and  _556
REMARK  233  A    between atoms: _555  and  _558
REMARK  234  A    between atoms: _558  and  _559
REMARK  235  A    between atoms: _564  and  _566
REMARK  236  A    between atoms: _566  and  _567
REMARK  237  A    between atoms: _566  and  _569
REMARK  238  A    between atoms: _569  and  _570
REMARK  239  A    between atoms: _573  and  _575
REMARK  240  A    between atoms: _575  and  _576
REMARK  241  A    between atoms: _575  and  _578
REMARK  242  A    between atoms: _578  and  _579
REMARK  243  A    between atoms: _585  and  _587
REMARK  244  A    between atoms: _587  and  _588
REMARK  245  A    between atoms: _587  and  _590
REMARK  246  A    between atoms: _590  and  _591
REMARK  247  A    between atoms: _591  and  _592
REMARK  248  A    between atoms: _595  and  _597
REMARK  249  A    between atoms: _597  and  _598
REMARK  250  A    between atoms: _597  and  _600
REMARK  251  A    between atoms: _600  and  _601
REMARK  252  A    between atoms: _601  and  _602
REMARK  253  A    between atoms: _602  and  _603
REMARK  254  A    between atoms: _612  and  _614
REMARK  255  A    between atoms: _614  and  _615
REMARK  256  A    between atoms: _614  and  _617
REMARK  257  A    between atoms: _617  and  _618
REMARK  258  A    between atoms: _618  and  _619
REMARK  259  A    between atoms: _619  and  _620
REMARK  260  A    between atoms: _629  and  _631
REMARK  261  A    between atoms: _631  and  _632
REMARK  262  A    between atoms: _631  and  _634
REMARK  263  A    between atoms: _634  and  _635
REMARK  264  A    between atoms: _640  and  _641
REMARK  265  A    between atoms: _643  and  _645
REMARK  266  A    between atoms: _645  and  _646
REMARK  267  A    between atoms: _645  and  _648
REMARK  268  A    between atoms: _648  and  _649
REMARK  269  A    between atoms: _652  and  _654
REMARK  270  A    between atoms: _654  and  _655
REMARK  271  A    between atoms: _654  and  _657
REMARK  272  A    between atoms: _657  and  _658
REMARK  273  A    between atoms: _658  and  _659
REMARK  274  A    between atoms: _659  and  _660
REMARK  275  A    between atoms: _660  and  _661
REMARK  276  A    between atoms: _665  and  _667
REMARK  277  A    between atoms: _667  and  _668
REMARK  278  A    between atoms: _667  and  _670
REMARK  279  A    between atoms: _670  and  _671
REMARK  280  A    between atoms: _676  and  _678
REMARK  281  A    between atoms: _678  and  _679
REMARK  282  A    between atoms: _678  and  _681
REMARK  283  A    between atoms: _681  and  _682
REMARK  284  A    between atoms: _692  and  _694
REMARK  285  A    between atoms: _694  and  _695
REMARK  286  A    between atoms: _694  and  _697
REMARK  287  A    between atoms: _697  and  _698
REMARK  288  A    between atoms: _698  and  _699
REMARK  289  A    between atoms: _702  and  _704
REMARK  290  A    between atoms: _704  and  _705
REMARK  291  A    between atoms: _704  and  _707
REMARK  292  A    between atoms: _707  and  _708
REMARK  293  A    between atoms: _711  and  _713
REMARK  294  A    between atoms: _713  and  _714
REMARK  295  A    between atoms: _713  and  _716
REMARK  296  A    between atoms: _716  and  _717
REMARK  297  A    between atoms: _722  and  _724
REMARK  298  A    between atoms: _724  and  _725
REMARK  299  A    between atoms: _724  and  _727
REMARK  300  A    between atoms: _727  and  _728
REMARK  301  A    between atoms: _734  and  _736
REMARK  302  A    between atoms: _736  and  _737
REMARK  303  A    between atoms: _736  and  _739
REMARK  304  A    between atoms: _739  and  _740
REMARK  305  A    between atoms: _742  and  _744
REMARK  306  A    between atoms: _744  and  _745
REMARK  307  A    between atoms: _747  and  _749
REMARK  308  A    between atoms: _749  and  _750
REMARK  309  A    between atoms: _749  and  _752
REMARK  310  A    between atoms: _752  and  _753
REMARK  311  A    between atoms: _758  and  _759
REMARK  312  A    between atoms: _761  and  _763
REMARK  313  A    between atoms: _763  and  _764
REMARK  314  A    between atoms: _763  and  _766
REMARK  315  A    between atoms: _766  and  _767
REMARK  316  A    between atoms: _772  and  _773
REMARK  317  A    between atoms: _775  and  _777
REMARK  318  A    between atoms: _777  and  _778
REMARK  319  A    between atoms: _777  and  _780
REMARK  320  A    between atoms: _780  and  _781
REMARK  321  A    between atoms: _785  and  ZN_876
REMARK  322  A    between atoms: _786  and  _788
REMARK  323  A    between atoms: _788  and  _789
REMARK  324  A    between atoms: _788  and  _791
REMARK  325  A    between atoms: _791  and  _792
REMARK  326  A    between atoms: _792  and  _793
REMARK  327  A    between atoms: _796  and  _798
REMARK  328  A    between atoms: _798  and  _799
REMARK  329  A    between atoms: _798  and  _801
REMARK  330  A    between atoms: _801  and  _802
REMARK  331  A    between atoms: _802  and  _803
REMARK  332  A    between atoms: _803  and  _804
REMARK  333  A    between atoms: _813  and  _815
REMARK  334  A    between atoms: _815  and  _816
REMARK  335  A    between atoms: _815  and  _818
REMARK  336  A    between atoms: _818  and  _819
REMARK  337  A    between atoms: _824  and  _825
REMARK  338  A    between atoms: _827  and  _829
REMARK  339  A    between atoms: _829  and  _830
REMARK  340  A    between atoms: _829  and  _832
REMARK  341  A    between atoms: _832  and  _833
REMARK  342  A    between atoms: _838  and  _840
REMARK  343  A    between atoms: _840  and  _841
REMARK  344  A    between atoms: _840  and  _843
REMARK  345  A    between atoms: _843  and  _844
REMARK  346  A    between atoms: _844  and  _845
REMARK  347  A    between atoms: _845  and  _846
REMARK  348  A    between atoms: _846  and  _847
REMARK  349  A    between atoms: _851  and  _853
REMARK  350  A    between atoms: _853  and  _854
REMARK  351  A    between atoms: _853  and  _856
REMARK  352  A    between atoms: _856  and  _857
REMARK  353  A    between atoms: _862  and  _863
REMARK  354  A    between atoms: _865  and  _867
REMARK  355  A    between atoms: _867  and  _868
REMARK  356  A    between atoms: _871  and  _873
REMARK  357  A    between atoms: _873  and  _874
REMARK                            x       y       z     vdW  Elec       q    Type
REMARK                         _______ _______ _______ _____ _____    ______ ____
ROOT
ATOM      1  O   HOH     1      16.821  37.103  43.830  0.00  0.00    +0.000 OA
ENDROOT
TORSDOF 0
REMARK  Name = ../refined-set-2016/2xei/2xei_pocket.pdb
REMARK  357 active torsions:
REMARK  status: ('A' for Active; 'I' for Inactive)
REMARK    1  A    between atoms: _1  and  _3
REMARK    2  A    between atoms: _3  and  _4
REMARK    3  A    between atoms: _7  and  _9
REMARK    4  A    between atoms: _9  and  _10
REMARK    5  A    between atoms: _9  and  _12
REMARK    6  A    between atoms: _12  and  _13
REMARK    7  A    between atoms: _19  and  _21
REMARK    8  A    between atoms: _21  and  _22
REMARK    9  A    between atoms: _24  and  _26
REMARK   10  A    between atoms: _26  and  _27
REMARK   11  A    between atoms: _26  and  _29
REMARK   12  A    between atoms: _29  and  _30
REMARK   13  A    between atoms: _30  and  _31
REMARK   14  A    between atoms: _31  and  _32
REMARK   15  A    between atoms: _32  and  _33
REMARK   16  A    between atoms: _37  and  _39
REMARK   17  A    between atoms: _39  and  _40
REMARK   18  A    between atoms: _39  and  _42
REMARK   19  A    between atoms: _45  and  _47
REMARK   20  A    between atoms: _47  and  _48
REMARK   21  A    between atoms: _47  and  _50
REMARK   22  A    between atoms: _50  and  _51
REMARK   23  A    between atoms: _57  and  _59
REMARK   24  A    between atoms: _59  and  _60
REMARK   25  A    between atoms: _59  and  _62
REMARK   26  A    between atoms: _62  and  _63
REMARK   27  A    between atoms: _63  and  _64
REMARK   28  A    between atoms: _64  and  _65
REMARK   29  A    between atoms: _74  and  _76
REMARK   30  A    between atoms: _76  and  _77
REMARK   31  A    between atoms: _79  and  _81
REMARK   32  A    between atoms: _81  and  _82
REMARK   33  A    between atoms: _81  and  _84
REMARK   34  A    between atoms: _84  and  _85
REMARK   35  A    between atoms: _90  and  _91
REMARK   36  A    between atoms: _93  and  _95
REMARK   37  A    between atoms: _95  and  _96
REMARK   38  A    between atoms: _95  and  _98
REMARK   39  A    between atoms: _98  and  _99
REMARK   40  A    between atoms: _99  and  _100
REMARK   41  A    between atoms: _105  and  _107
REMARK   42  A    between atoms: _107  and  _108
REMARK   43  A    between atoms: _107  and  _110
REMARK   44  A    between atoms: _110  and  _111
REMARK   45  A    between atoms: _111  and  _112
REMARK   46  A    between atoms: _112  and  _113
REMARK   47  A    between atoms: _122  and  _124
REMARK   48  A    between atoms: _124  and  _125
REMARK   49  A    between atoms: _127  and  _129
REMARK   50  A    between atoms: _129  and  _130
REMARK   51  A    between atoms: _129  and  _132
REMARK   52  A    between atoms: _132  and  _133
REMARK   53  A    between atoms: _138  and  _140
REMARK   54  A    between atoms: _140  and  _141
REMARK   55  A    between atoms: _140  and  _143
REMARK   56  A    between atoms: _143  and  _144
REMARK   57  A    between atoms: _147  and  _149
REMARK   58  A    between atoms: _149  and  _150
REMARK   59  A    between atoms: _149  and  _152
REMARK   60  A    between atoms: _152  and  _153
REMARK   61  A    between atoms: _156  and  _158
REMARK   62  A    between atoms: _158  and  _159
REMARK   63  A    between atoms: _158  and  _161
REMARK   64  A    between atoms: _161  and  _162
REMARK   65  A    between atoms: _167  and  _169
REMARK   66  A    between atoms: _169  and  _170
REMARK   67  A    between atoms: _169  and  _172
REMARK   68  A    between atoms: _172  and  _173
REMARK   69  A    between atoms: _176  and  _178
REMARK   70  A    between atoms: _178  and  _179
REMARK   71  A    between atoms: _178  and  _181
REMARK   72  A    between atoms: _181  and  _182
REMARK   73  A    between atoms: _187  and  _189
REMARK   74  A    between atoms: _189  and  _190
REMARK   75  A    between atoms: _192  and  _194
REMARK   76  A    between atoms: _194  and  _195
REMARK   77  A    between atoms: _194  and  _197
REMARK   78  A    between atoms: _197  and  _198
REMARK   79  A    between atoms: _202  and  ZN_877
REMARK   80  A    between atoms: _203  and  _205
REMARK   81  A    between atoms: _205  and  _206
REMARK   82  A    between atoms: _205  and  _208
REMARK   83  A    between atoms: _208  and  _209
REMARK   84  A    between atoms: _212  and  _214
REMARK   85  A    between atoms: _214  and  _215
REMARK   86  A    between atoms: _214  and  _217
REMARK   87  A    between atoms: _217  and  _218
REMARK   88  A    between atoms: _228  and  _230
REMARK   89  A    between atoms: _230  and  _231
REMARK   90  A    between atoms: _230  and  _233
REMARK   91  A    between atoms: _233  and  _234
REMARK   92  A    between atoms: _237  and  _239
REMARK   93  A    between atoms: _239  and  _240
REMARK   94  A    between atoms: _239  and  _242
REMARK   95  A    between atoms: _242  and  _243
REMARK   96  A    between atoms: _243  and  _244
REMARK   97  A    between atoms: _243  and  _245
REMARK   98  A    between atoms: _244  and  ZN_877
REMARK   99  A    between atoms: _245  and  ZN_876
REMARK  100  A    between atoms: _247  and  _248
REMARK  101  A    between atoms: _253  and  _255
REMARK  102  A    between atoms: _255  and  _256
REMARK  103  A    between atoms: _259  and  _261
REMARK  104  A    between atoms: _261  and  _262
REMARK  105  A    between atoms: _261  and  _264
REMARK  106  A    between atoms: _264  and  _265
REMARK  107  A    between atoms: _265  and  _266
REMARK  108  A    between atoms: _269  and  _271
REMARK  109  A    between atoms: _271  and  _272
REMARK  110  A    between atoms: _271  and  _274
REMARK  111  A    between atoms: _274  and  _275
REMARK  112  A    between atoms: _275  and  _276
REMARK  113  A    between atoms: _276  and  _278
REMARK  114  A    between atoms: _278  and  ZN_876
REMARK  115  A    between atoms: _279  and  _281
REMARK  116  A    between atoms: _281  and  _282
REMARK  117  A    between atoms: _281  and  _284
REMARK  118  A    between atoms: _284  and  _285
REMARK  119  A    between atoms: _291  and  _293
REMARK  120  A    between atoms: _293  and  _294
REMARK  121  A    between atoms: _296  and  _298
REMARK  122  A    between atoms: _298  and  _299
REMARK  123  A    between atoms: _298  and  _301
REMARK  124  A    between atoms: _301  and  _302
REMARK  125  A    between atoms: _305  and  _307
REMARK  126  A    between atoms: _307  and  _308
REMARK  127  A    between atoms: _307  and  _310
REMARK  128  A    between atoms: _310  and  _311
REMARK  129  A    between atoms: _314  and  _316
REMARK  130  A    between atoms: _316  and  _317
REMARK  131  A    between atoms: _316  and  _319
REMARK  132  A    between atoms: _319  and  _320
REMARK  133  A    between atoms: _325  and  _327
REMARK  134  A    between atoms: _327  and  _328
REMARK  135  A    between atoms: _327  and  _330
REMARK  136  A    between atoms: _330  and  _331
REMARK  137  A    between atoms: _331  and  _333
REMARK  138  A    between atoms: _333  and  ZN_877
REMARK  139  A    between atoms: _334  and  _336
REMARK  140  A    between atoms: _336  and  _337
REMARK  141  A    between atoms: _336  and  _339
REMARK  142  A    between atoms: _339  and  _340
REMARK  143  A    between atoms: _342  and  _344
REMARK  144  A    between atoms: _344  and  _345
REMARK  145  A    between atoms: _344  and  _347
REMARK  146  A    between atoms: _347  and  _348
REMARK  147  A    between atoms: _350  and  _352
REMARK  148  A    between atoms: _352  and  _353
REMARK  149  A    between atoms: _352  and  _355
REMARK  150  A    between atoms: _355  and  _356
REMARK  151  A    between atoms: _359  and  _361
REMARK  152  A    between atoms: _361  and  _362
REMARK  153  A    between atoms: _361  and  _364
REMARK  154  A    between atoms: _364  and  _365
REMARK  155  A    between atoms: _365  and  _366
REMARK  156  A    between atoms: _369  and  _371
REMARK  157  A    between atoms: _371  and  _372
REMARK  158  A    between atoms: _371  and  _374
REMARK  159  A    between atoms: _374  and  _375
REMARK  160  A    between atoms: _380  and  _381
REMARK  161  A    between atoms: _383  and  _385
REMARK  162  A    between atoms: _385  and  _386
REMARK  163  A    between atoms: _385  and  _388
REMARK  164  A    between atoms: _388  and  _389
REMARK  165  A    between atoms: _392  and  _394
REMARK  166  A    between atoms: _394  and  _395
REMARK  167  A    between atoms: _394  and  _397
REMARK  168  A    between atoms: _397  and  _398
REMARK  169  A    between atoms: _401  and  _403
REMARK  170  A    between atoms: _403  and  _404
REMARK  171  A    between atoms: _403  and  _406
REMARK  172  A    between atoms: _406  and  _407
REMARK  173  A    between atoms: _407  and  _408
REMARK  174  A    between atoms: _408  and  _409
REMARK  175  A    between atoms: _418  and  _420
REMARK  176  A    between atoms: _420  and  _421
REMARK  177  A    between atoms: _420  and  _423
REMARK  178  A    between atoms: _426  and  _428
REMARK  179  A    between atoms: _428  and  _429
REMARK  180  A    between atoms: _428  and  _431
REMARK  181  A    between atoms: _431  and  _432
REMARK  182  A    between atoms: _435  and  _437
REMARK  183  A    between atoms: _437  and  _438
REMARK  184  A    between atoms: _437  and  _440
REMARK  185  A    between atoms: _440  and  _441
REMARK  186  A    between atoms: _451  and  _453
REMARK  187  A    between atoms: _453  and  _454
REMARK  188  A    between atoms: _453  and  _456
REMARK  189  A    between atoms: _456  and  _457
REMARK  190  A    between atoms: _457  and  _458
REMARK  191  A    between atoms: _458  and  _459
REMARK  192  A    between atoms: _459  and  _460
REMARK  193  A    between atoms: _464  and  _466
REMARK  194  A    between atoms: _466  and  _467
REMARK  195  A    between atoms: _466  and  _469
REMARK  196  A    between atoms: _469  and  _470
REMARK  197  A    between atoms: _473  and  _474
REMARK  198  A    between atoms: _479  and  _481
REMARK  199  A    between atoms: _481  and  _482
REMARK  200  A    between atoms: _481  and  _484
REMARK  201  A    between atoms: _484  and  _485
REMARK  202  A    between atoms: _485  and  _486
REMARK  203  A    between atoms: _486  and  _487
REMARK  204  A    between atoms: _496  and  _498
REMARK  205  A    between atoms: _498  and  _499
REMARK  206  A    between atoms: _498  and  _501
REMARK  207  A    between atoms: _501  and  _502
REMARK  208  A    between atoms: _505  and  _507
REMARK  209  A    between atoms: _507  and  _508
REMARK  210  A    between atoms: _507  and  _510
REMARK  211  A    between atoms: _510  and  _511
REMARK  212  A    between atoms: _513  and  _515
REMARK  213  A    between atoms: _515  and  _516
REMARK  214  A    between atoms: _515  and  _518
REMARK  215  A    between atoms: _518  and  _519
REMARK  216  A    between atoms: _519  and  _520
REMARK  217  A    between atoms: _520  and  _521
REMARK  218  A    between atoms: _521  and  _522
REMARK  219  A    between atoms: _526  and  _528
REMARK  220  A    between atoms: _528  and  _529
REMARK  221  A    between atoms: _528  and  _531
REMARK  222  A    between atoms: _531  and  _532
REMARK  223  A    between atoms: _535  and  _537
REMARK  224  A    between atoms: _537  and  _538
REMARK  225  A    between atoms: _540  and  _542
REMARK  226  A    between atoms: _542  and  _543
REMARK  227  A    between atoms: _542  and  _545
REMARK  228  A    between atoms: _545  and  _546
REMARK  229  A    between atoms: _548  and  _550
REMARK  230  A    between atoms: _550  and  _551
REMARK  231  A    between atoms: _553  and  _555
REMARK  232  A    between atoms: _555  and  _556
REMARK  233  A    between atoms: _555  and  _558
REMARK  234  A    between atoms: _558  and  _559
REMARK  235  A    between atoms: _564  and  _566
REMARK  236  A    between atoms: _566  and  _567
REMARK  237  A    between atoms: _566  and  _569
REMARK  238  A    between atoms: _569  and  _570
REMARK  239  A    between atoms: _573  and  _575
REMARK  240  A    between atoms: _575  and  _576
REMARK  241  A    between atoms: _575  and  _578
REMARK  242  A    between atoms: _578  and  _579
REMARK  243  A    between atoms: _585  and  _587
REMARK  244  A    between atoms: _587  and  _588
REMARK  245  A    between atoms: _587  and  _590
REMARK  246  A    between atoms: _590  and  _591
REMARK  247  A    between atoms: _591  and  _592
REMARK  248  A    between atoms: _595  and  _597
REMARK  249  A    between atoms: _597  and  _598
REMARK  250  A    between atoms: _597  and  _600
REMARK  251  A    between atoms: _600  and  _601
REMARK  252  A    between atoms: _601  and  _602
REMARK  253  A    between atoms: _602  and  _603
REMARK  254  A    between atoms: _612  and  _614
REMARK  255  A    between atoms: _614  and  _615
REMARK  256  A    between atoms: _614  and  _617
REMARK  257  A    between atoms: _617  and  _618
REMARK  258  A    between atoms: _618  and  _619
REMARK  259  A    between atoms: _619  and  _620
REMARK  260  A    between atoms: _629  and  _631
REMARK  261  A    between atoms: _631  and  _632
REMARK  262  A    between atoms: _631  and  _634
REMARK  263  A    between atoms: _634  and  _635
REMARK  264  A    between atoms: _640  and  _641
REMARK  265  A    between atoms: _643  and  _645
REMARK  266  A    between atoms: _645  and  _646
REMARK  267  A    between atoms: _645  and  _648
REMARK  268  A    between atoms: _648  and  _649
REMARK  269  A    between atoms: _652  and  _654
REMARK  270  A    between atoms: _654  and  _655
REMARK  271  A    between atoms: _654  and  _657
REMARK  272  A    between atoms: _657  and  _658
REMARK  273  A    between atoms: _658  and  _659
REMARK  274  A    between atoms: _659  and  _660
REMARK  275  A    between atoms: _660  and  _661
REMARK  276  A    between atoms: _665  and  _667
REMARK  277  A    between atoms: _667  and  _668
REMARK  278  A    between atoms: _667  and  _670
REMARK  279  A    between atoms: _670  and  _671
REMARK  280  A    between atoms: _676  and  _678
REMARK  281  A    between atoms: _678  and  _679
REMARK  282  A    between atoms: _678  and  _681
REMARK  283  A    between atoms: _681  and  _682
REMARK  284  A    between atoms: _692  and  _694
REMARK  285  A    between atoms: _694  and  _695
REMARK  286  A    between atoms: _694  and  _697
REMARK  287  A    between atoms: _697  and  _698
REMARK  288  A    between atoms: _698  and  _699
REMARK  289  A    between atoms: _702  and  _704
REMARK  290  A    between atoms: _704  and  _705
REMARK  291  A    between atoms: _704  and  _707
REMARK  292  A    between atoms: _707  and  _708
REMARK  293  A    between atoms: _711  and  _713
REMARK  294  A    between atoms: _713  and  _714
REMARK  295  A    between atoms: _713  and  _716
REMARK  296  A    between atoms: _716  and  _717
REMARK  297  A    between atoms: _722  and  _724
REMARK  298  A    between atoms: _724  and  _725
REMARK  299  A    between atoms: _724  and  _727
REMARK  300  A    between atoms: _727  and  _728
REMARK  301  A    between atoms: _734  and  _736
REMARK  302  A    between atoms: _736  and  _737
REMARK  303  A    between atoms: _736  and  _739
REMARK  304  A    between atoms: _739  and  _740
REMARK  305  A    between atoms: _742  and  _744
REMARK  306  A    between atoms: _744  and  _745
REMARK  307  A    between atoms: _747  and  _749
REMARK  308  A    between atoms: _749  and  _750
REMARK  309  A    between atoms: _749  and  _752
REMARK  310  A    between atoms: _752  and  _753
REMARK  311  A    between atoms: _758  and  _759
REMARK  312  A    between atoms: _761  and  _763
REMARK  313  A    between atoms: _763  and  _764
REMARK  314  A    between atoms: _763  and  _766
REMARK  315  A    between atoms: _766  and  _767
REMARK  316  A    between atoms: _772  and  _773
REMARK  317  A    between atoms: _775  and  _777
REMARK  318  A    between atoms: _777  and  _778
REMARK  319  A    between atoms: _777  and  _780
REMARK  320  A    between atoms: _780  and  _781
REMARK  321  A    between atoms: _785  and  ZN_876
REMARK  322  A    between atoms: _786  and  _788
REMARK  323  A    between atoms: _788  and  _789
REMARK  324  A    between atoms: _788  and  _791
REMARK  325  A    between atoms: _791  and  _792
REMARK  326  A    between atoms: _792  and  _793
REMARK  327  A    between atoms: _796  and  _798
REMARK  328  A    between atoms: _798  and  _799
REMARK  329  A    between atoms: _798  and  _801
REMARK  330  A    between atoms: _801  and  _802
REMARK  331  A    between atoms: _802  and  _803
REMARK  332  A    between atoms: _803  and  _804
REMARK  333  A    between atoms: _813  and  _815
REMARK  334  A    between atoms: _815  and  _816
REMARK  335  A    between atoms: _815  and  _818
REMARK  336  A    between atoms: _818  and  _819
REMARK  337  A    between atoms: _824  and  _825
REMARK  338  A    between atoms: _827  and  _829
REMARK  339  A    between atoms: _829  and  _830
REMARK  340  A    between atoms: _829  and  _832
REMARK  341  A    between atoms: _832  and  _833
REMARK  342  A    between atoms: _838  and  _840
REMARK  343  A    between atoms: _840  and  _841
REMARK  344  A    between atoms: _840  and  _843
REMARK  345  A    between atoms: _843  and  _844
REMARK  346  A    between atoms: _844  and  _845
REMARK  347  A    between atoms: _845  and  _846
REMARK  348  A    between atoms: _846  and  _847
REMARK  349  A    between atoms: _851  and  _853
REMARK  350  A    between atoms: _853  and  _854
REMARK  351  A    between atoms: _853  and  _856
REMARK  352  A    between atoms: _856  and  _857
REMARK  353  A    between atoms: _862  and  _863
REMARK  354  A    between atoms: _865  and  _867
REMARK  355  A    between atoms: _867  and  _868
REMARK  356  A    between atoms: _871  and  _873
REMARK  357  A    between atoms: _873  and  _874
REMARK                            x       y       z     vdW  Elec       q    Type
REMARK                         _______ _______ _______ _____ _____    ______ ____
ROOT
ATOM      1  O   HOH     1       8.014  50.366  40.753  0.00  0.00    +0.000 OA
ENDROOT
TORSDOF 0
REMARK  Name = ../refined-set-2016/2xei/2xei_pocket.pdb
REMARK  357 active torsions:
REMARK  status: ('A' for Active; 'I' for Inactive)
REMARK    1  A    between atoms: _1  and  _3
REMARK    2  A    between atoms: _3  and  _4
REMARK    3  A    between atoms: _7  and  _9
REMARK    4  A    between atoms: _9  and  _10
REMARK    5  A    between atoms: _9  and  _12
REMARK    6  A    between atoms: _12  and  _13
REMARK    7  A    between atoms: _19  and  _21
REMARK    8  A    between atoms: _21  and  _22
REMARK    9  A    between atoms: _24  and  _26
REMARK   10  A    between atoms: _26  and  _27
REMARK   11  A    between atoms: _26  and  _29
REMARK   12  A    between atoms: _29  and  _30
REMARK   13  A    between atoms: _30  and  _31
REMARK   14  A    between atoms: _31  and  _32
REMARK   15  A    between atoms: _32  and  _33
REMARK   16  A    between atoms: _37  and  _39
REMARK   17  A    between atoms: _39  and  _40
REMARK   18  A    between atoms: _39  and  _42
REMARK   19  A    between atoms: _45  and  _47
REMARK   20  A    between atoms: _47  and  _48
REMARK   21  A    between atoms: _47  and  _50
REMARK   22  A    between atoms: _50  and  _51
REMARK   23  A    between atoms: _57  and  _59
REMARK   24  A    between atoms: _59  and  _60
REMARK   25  A    between atoms: _59  and  _62
REMARK   26  A    between atoms: _62  and  _63
REMARK   27  A    between atoms: _63  and  _64
REMARK   28  A    between atoms: _64  and  _65
REMARK   29  A    between atoms: _74  and  _76
REMARK   30  A    between atoms: _76  and  _77
REMARK   31  A    between atoms: _79  and  _81
REMARK   32  A    between atoms: _81  and  _82
REMARK   33  A    between atoms: _81  and  _84
REMARK   34  A    between atoms: _84  and  _85
REMARK   35  A    between atoms: _90  and  _91
REMARK   36  A    between atoms: _93  and  _95
REMARK   37  A    between atoms: _95  and  _96
REMARK   38  A    between atoms: _95  and  _98
REMARK   39  A    between atoms: _98  and  _99
REMARK   40  A    between atoms: _99  and  _100
REMARK   41  A    between atoms: _105  and  _107
REMARK   42  A    between atoms: _107  and  _108
REMARK   43  A    between atoms: _107  and  _110
REMARK   44  A    between atoms: _110  and  _111
REMARK   45  A    between atoms: _111  and  _112
REMARK   46  A    between atoms: _112  and  _113
REMARK   47  A    between atoms: _122  and  _124
REMARK   48  A    between atoms: _124  and  _125
REMARK   49  A    between atoms: _127  and  _129
REMARK   50  A    between atoms: _129  and  _130
REMARK   51  A    between atoms: _129  and  _132
REMARK   52  A    between atoms: _132  and  _133
REMARK   53  A    between atoms: _138  and  _140
REMARK   54  A    between atoms: _140  and  _141
REMARK   55  A    between atoms: _140  and  _143
REMARK   56  A    between atoms: _143  and  _144
REMARK   57  A    between atoms: _147  and  _149
REMARK   58  A    between atoms: _149  and  _150
REMARK   59  A    between atoms: _149  and  _152
REMARK   60  A    between atoms: _152  and  _153
REMARK   61  A    between atoms: _156  and  _158
REMARK   62  A    between atoms: _158  and  _159
REMARK   63  A    between atoms: _158  and  _161
REMARK   64  A    between atoms: _161  and  _162
REMARK   65  A    between atoms: _167  and  _169
REMARK   66  A    between atoms: _169  and  _170
REMARK   67  A    between atoms: _169  and  _172
REMARK   68  A    between atoms: _172  and  _173
REMARK   69  A    between atoms: _176  and  _178
REMARK   70  A    between atoms: _178  and  _179
REMARK   71  A    between atoms: _178  and  _181
REMARK   72  A    between atoms: _181  and  _182
REMARK   73  A    between atoms: _187  and  _189
REMARK   74  A    between atoms: _189  and  _190
REMARK   75  A    between atoms: _192  and  _194
REMARK   76  A    between atoms: _194  and  _195
REMARK   77  A    between atoms: _194  and  _197
REMARK   78  A    between atoms: _197  and  _198
REMARK   79  A    between atoms: _202  and  ZN_877
REMARK   80  A    between atoms: _203  and  _205
REMARK   81  A    between atoms: _205  and  _206
REMARK   82  A    between atoms: _205  and  _208
REMARK   83  A    between atoms: _208  and  _209
REMARK   84  A    between atoms: _212  and  _214
REMARK   85  A    between atoms: _214  and  _215
REMARK   86  A    between atoms: _214  and  _217
REMARK   87  A    between atoms: _217  and  _218
REMARK   88  A    between atoms: _228  and  _230
REMARK   89  A    between atoms: _230  and  _231
REMARK   90  A    between atoms: _230  and  _233
REMARK   91  A    between atoms: _233  and  _234
REMARK   92  A    between atoms: _237  and  _239
REMARK   93  A    between atoms: _239  and  _240
REMARK   94  A    between atoms: _239  and  _242
REMARK   95  A    between atoms: _242  and  _243
REMARK   96  A    between atoms: _243  and  _244
REMARK   97  A    between atoms: _243  and  _245
REMARK   98  A    between atoms: _244  and  ZN_877
REMARK   99  A    between atoms: _245  and  ZN_876
REMARK  100  A    between atoms: _247  and  _248
REMARK  101  A    between atoms: _253  and  _255
REMARK  102  A    between atoms: _255  and  _256
REMARK  103  A    between atoms: _259  and  _261
REMARK  104  A    between atoms: _261  and  _262
REMARK  105  A    between atoms: _261  and  _264
REMARK  106  A    between atoms: _264  and  _265
REMARK  107  A    between atoms: _265  and  _266
REMARK  108  A    between atoms: _269  and  _271
REMARK  109  A    between atoms: _271  and  _272
REMARK  110  A    between atoms: _271  and  _274
REMARK  111  A    between atoms: _274  and  _275
REMARK  112  A    between atoms: _275  and  _276
REMARK  113  A    between atoms: _276  and  _278
REMARK  114  A    between atoms: _278  and  ZN_876
REMARK  115  A    between atoms: _279  and  _281
REMARK  116  A    between atoms: _281  and  _282
REMARK  117  A    between atoms: _281  and  _284
REMARK  118  A    between atoms: _284  and  _285
REMARK  119  A    between atoms: _291  and  _293
REMARK  120  A    between atoms: _293  and  _294
REMARK  121  A    between atoms: _296  and  _298
REMARK  122  A    between atoms: _298  and  _299
REMARK  123  A    between atoms: _298  and  _301
REMARK  124  A    between atoms: _301  and  _302
REMARK  125  A    between atoms: _305  and  _307
REMARK  126  A    between atoms: _307  and  _308
REMARK  127  A    between atoms: _307  and  _310
REMARK  128  A    between atoms: _310  and  _311
REMARK  129  A    between atoms: _314  and  _316
REMARK  130  A    between atoms: _316  and  _317
REMARK  131  A    between atoms: _316  and  _319
REMARK  132  A    between atoms: _319  and  _320
REMARK  133  A    between atoms: _325  and  _327
REMARK  134  A    between atoms: _327  and  _328
REMARK  135  A    between atoms: _327  and  _330
REMARK  136  A    between atoms: _330  and  _331
REMARK  137  A    between atoms: _331  and  _333
REMARK  138  A    between atoms: _333  and  ZN_877
REMARK  139  A    between atoms: _334  and  _336
REMARK  140  A    between atoms: _336  and  _337
REMARK  141  A    between atoms: _336  and  _339
REMARK  142  A    between atoms: _339  and  _340
REMARK  143  A    between atoms: _342  and  _344
REMARK  144  A    between atoms: _344  and  _345
REMARK  145  A    between atoms: _344  and  _347
REMARK  146  A    between atoms: _347  and  _348
REMARK  147  A    between atoms: _350  and  _352
REMARK  148  A    between atoms: _352  and  _353
REMARK  149  A    between atoms: _352  and  _355
REMARK  150  A    between atoms: _355  and  _356
REMARK  151  A    between atoms: _359  and  _361
REMARK  152  A    between atoms: _361  and  _362
REMARK  153  A    between atoms: _361  and  _364
REMARK  154  A    between atoms: _364  and  _365
REMARK  155  A    between atoms: _365  and  _366
REMARK  156  A    between atoms: _369  and  _371
REMARK  157  A    between atoms: _371  and  _372
REMARK  158  A    between atoms: _371  and  _374
REMARK  159  A    between atoms: _374  and  _375
REMARK  160  A    between atoms: _380  and  _381
REMARK  161  A    between atoms: _383  and  _385
REMARK  162  A    between atoms: _385  and  _386
REMARK  163  A    between atoms: _385  and  _388
REMARK  164  A    between atoms: _388  and  _389
REMARK  165  A    between atoms: _392  and  _394
REMARK  166  A    between atoms: _394  and  _395
REMARK  167  A    between atoms: _394  and  _397
REMARK  168  A    between atoms: _397  and  _398
REMARK  169  A    between atoms: _401  and  _403
REMARK  170  A    between atoms: _403  and  _404
REMARK  171  A    between atoms: _403  and  _406
REMARK  172  A    between atoms: _406  and  _407
REMARK  173  A    between atoms: _407  and  _408
REMARK  174  A    between atoms: _408  and  _409
REMARK  175  A    between atoms: _418  and  _420
REMARK  176  A    between atoms: _420  and  _421
REMARK  177  A    between atoms: _420  and  _423
REMARK  178  A    between atoms: _426  and  _428
REMARK  179  A    between atoms: _428  and  _429
REMARK  180  A    between atoms: _428  and  _431
REMARK  181  A    between atoms: _431  and  _432
REMARK  182  A    between atoms: _435  and  _437
REMARK  183  A    between atoms: _437  and  _438
REMARK  184  A    between atoms: _437  and  _440
REMARK  185  A    between atoms: _440  and  _441
REMARK  186  A    between atoms: _451  and  _453
REMARK  187  A    between atoms: _453  and  _454
REMARK  188  A    between atoms: _453  and  _456
REMARK  189  A    between atoms: _456  and  _457
REMARK  190  A    between atoms: _457  and  _458
REMARK  191  A    between atoms: _458  and  _459
REMARK  192  A    between atoms: _459  and  _460
REMARK  193  A    between atoms: _464  and  _466
REMARK  194  A    between atoms: _466  and  _467
REMARK  195  A    between atoms: _466  and  _469
REMARK  196  A    between atoms: _469  and  _470
REMARK  197  A    between atoms: _473  and  _474
REMARK  198  A    between atoms: _479  and  _481
REMARK  199  A    between atoms: _481  and  _482
REMARK  200  A    between atoms: _481  and  _484
REMARK  201  A    between atoms: _484  and  _485
REMARK  202  A    between atoms: _485  and  _486
REMARK  203  A    between atoms: _486  and  _487
REMARK  204  A    between atoms: _496  and  _498
REMARK  205  A    between atoms: _498  and  _499
REMARK  206  A    between atoms: _498  and  _501
REMARK  207  A    between atoms: _501  and  _502
REMARK  208  A    between atoms: _505  and  _507
REMARK  209  A    between atoms: _507  and  _508
REMARK  210  A    between atoms: _507  and  _510
REMARK  211  A    between atoms: _510  and  _511
REMARK  212  A    between atoms: _513  and  _515
REMARK  213  A    between atoms: _515  and  _516
REMARK  214  A    between atoms: _515  and  _518
REMARK  215  A    between atoms: _518  and  _519
REMARK  216  A    between atoms: _519  and  _520
REMARK  217  A    between atoms: _520  and  _521
REMARK  218  A    between atoms: _521  and  _522
REMARK  219  A    between atoms: _526  and  _528
REMARK  220  A    between atoms: _528  and  _529
REMARK  221  A    between atoms: _528  and  _531
REMARK  222  A    between atoms: _531  and  _532
REMARK  223  A    between atoms: _535  and  _537
REMARK  224  A    between atoms: _537  and  _538
REMARK  225  A    between atoms: _540  and  _542
REMARK  226  A    between atoms: _542  and  _543
REMARK  227  A    between atoms: _542  and  _545
REMARK  228  A    between atoms: _545  and  _546
REMARK  229  A    between atoms: _548  and  _550
REMARK  230  A    between atoms: _550  and  _551
REMARK  231  A    between atoms: _553  and  _555
REMARK  232  A    between atoms: _555  and  _556
REMARK  233  A    between atoms: _555  and  _558
REMARK  234  A    between atoms: _558  and  _559
REMARK  235  A    between atoms: _564  and  _566
REMARK  236  A    between atoms: _566  and  _567
REMARK  237  A    between atoms: _566  and  _569
REMARK  238  A    between atoms: _569  and  _570
REMARK  239  A    between atoms: _573  and  _575
REMARK  240  A    between atoms: _575  and  _576
REMARK  241  A    between atoms: _575  and  _578
REMARK  242  A    between atoms: _578  and  _579
REMARK  243  A    between atoms: _585  and  _587
REMARK  244  A    between atoms: _587  and  _588
REMARK  245  A    between atoms: _587  and  _590
REMARK  246  A    between atoms: _590  and  _591
REMARK  247  A    between atoms: _591  and  _592
REMARK  248  A    between atoms: _595  and  _597
REMARK  249  A    between atoms: _597  and  _598
REMARK  250  A    between atoms: _597  and  _600
REMARK  251  A    between atoms: _600  and  _601
REMARK  252  A    between atoms: _601  and  _602
REMARK  253  A    between atoms: _602  and  _603
REMARK  254  A    between atoms: _612  and  _614
REMARK  255  A    between atoms: _614  and  _615
REMARK  256  A    between atoms: _614  and  _617
REMARK  257  A    between atoms: _617  and  _618
REMARK  258  A    between atoms: _618  and  _619
REMARK  259  A    between atoms: _619  and  _620
REMARK  260  A    between atoms: _629  and  _631
REMARK  261  A    between atoms: _631  and  _632
REMARK  262  A    between atoms: _631  and  _634
REMARK  263  A    between atoms: _634  and  _635
REMARK  264  A    between atoms: _640  and  _641
REMARK  265  A    between atoms: _643  and  _645
REMARK  266  A    between atoms: _645  and  _646
REMARK  267  A    between atoms: _645  and  _648
REMARK  268  A    between atoms: _648  and  _649
REMARK  269  A    between atoms: _652  and  _654
REMARK  270  A    between atoms: _654  and  _655
REMARK  271  A    between atoms: _654  and  _657
REMARK  272  A    between atoms: _657  and  _658
REMARK  273  A    between atoms: _658  and  _659
REMARK  274  A    between atoms: _659  and  _660
REMARK  275  A    between atoms: _660  and  _661
REMARK  276  A    between atoms: _665  and  _667
REMARK  277  A    between atoms: _667  and  _668
REMARK  278  A    between atoms: _667  and  _670
REMARK  279  A    between atoms: _670  and  _671
REMARK  280  A    between atoms: _676  and  _678
REMARK  281  A    between atoms: _678  and  _679
REMARK  282  A    between atoms: _678  and  _681
REMARK  283  A    between atoms: _681  and  _682
REMARK  284  A    between atoms: _692  and  _694
REMARK  285  A    between atoms: _694  and  _695
REMARK  286  A    between atoms: _694  and  _697
REMARK  287  A    between atoms: _697  and  _698
REMARK  288  A    between atoms: _698  and  _699
REMARK  289  A    between atoms: _702  and  _704
REMARK  290  A    between atoms: _704  and  _705
REMARK  291  A    between atoms: _704  and  _707
REMARK  292  A    between atoms: _707  and  _708
REMARK  293  A    between atoms: _711  and  _713
REMARK  294  A    between atoms: _713  and  _714
REMARK  295  A    between atoms: _713  and  _716
REMARK  296  A    between atoms: _716  and  _717
REMARK  297  A    between atoms: _722  and  _724
REMARK  298  A    between atoms: _724  and  _725
REMARK  299  A    between atoms: _724  and  _727
REMARK  300  A    between atoms: _727  and  _728
REMARK  301  A    between atoms: _734  and  _736
REMARK  302  A    between atoms: _736  and  _737
REMARK  303  A    between atoms: _736  and  _739
REMARK  304  A    between atoms: _739  and  _740
REMARK  305  A    between atoms: _742  and  _744
REMARK  306  A    between atoms: _744  and  _745
REMARK  307  A    between atoms: _747  and  _749
REMARK  308  A    between atoms: _749  and  _750
REMARK  309  A    between atoms: _749  and  _752
REMARK  310  A    between atoms: _752  and  _753
REMARK  311  A    between atoms: _758  and  _759
REMARK  312  A    between atoms: _761  and  _763
REMARK  313  A    between atoms: _763  and  _764
REMARK  314  A    between atoms: _763  and  _766
REMARK  315  A    between atoms: _766  and  _767
REMARK  316  A    between atoms: _772  and  _773
REMARK  317  A    between atoms: _775  and  _777
REMARK  318  A    between atoms: _777  and  _778
REMARK  319  A    between atoms: _777  and  _780
REMARK  320  A    between atoms: _780  and  _781
REMARK  321  A    between atoms: _785  and  ZN_876
REMARK  322  A    between atoms: _786  and  _788
REMARK  323  A    between atoms: _788  and  _789
REMARK  324  A    between atoms: _788  and  _791
REMARK  325  A    between atoms: _791  and  _792
REMARK  326  A    between atoms: _792  and  _793
REMARK  327  A    between atoms: _796  and  _798
REMARK  328  A    between atoms: _798  and  _799
REMARK  329  A    between atoms: _798  and  _801
REMARK  330  A    between atoms: _801  and  _802
REMARK  331  A    between atoms: _802  and  _803
REMARK  332  A    between atoms: _803  and  _804
REMARK  333  A    between atoms: _813  and  _815
REMARK  334  A    between atoms: _815  and  _816
REMARK  335  A    between atoms: _815  and  _818
REMARK  336  A    between atoms: _818  and  _819
REMARK  337  A    between atoms: _824  and  _825
REMARK  338  A    between atoms: _827  and  _829
REMARK  339  A    between atoms: _829  and  _830
REMARK  340  A    between atoms: _829  and  _832
REMARK  341  A    between atoms: _832  and  _833
REMARK  342  A    between atoms: _838  and  _840
REMARK  343  A    between atoms: _840  and  _841
REMARK  344  A    between atoms: _840  and  _843
REMARK  345  A    between atoms: _843  and  _844
REMARK  346  A    between atoms: _844  and  _845
REMARK  347  A    between atoms: _845  and  _846
REMARK  348  A    between atoms: _846  and  _847
REMARK  349  A    between atoms: _851  and  _853
REMARK  350  A    between atoms: _853  and  _854
REMARK  351  A    between atoms: _853  and  _856
REMARK  352  A    between atoms: _856  and  _857
REMARK  353  A    between atoms: _862  and  _863
REMARK  354  A    between atoms: _865  and  _867
REMARK  355  A    between atoms: _867  and  _868
REMARK  356  A    between atoms: _871  and  _873
REMARK  357  A    between atoms: _873  and  _874
REMARK                            x       y       z     vdW  Elec       q    Type
REMARK                         _______ _______ _______ _____ _____    ______ ____
ROOT
ATOM      1  O   HOH     1       8.041  51.780  43.061  0.00  0.00    +0.000 OA
ENDROOT
TORSDOF 0
REMARK  Name = ../refined-set-2016/2xei/2xei_pocket.pdb
REMARK  357 active torsions:
REMARK  status: ('A' for Active; 'I' for Inactive)
REMARK    1  A    between atoms: _1  and  _3
REMARK    2  A    between atoms: _3  and  _4
REMARK    3  A    between atoms: _7  and  _9
REMARK    4  A    between atoms: _9  and  _10
REMARK    5  A    between atoms: _9  and  _12
REMARK    6  A    between atoms: _12  and  _13
REMARK    7  A    between atoms: _19  and  _21
REMARK    8  A    between atoms: _21  and  _22
REMARK    9  A    between atoms: _24  and  _26
REMARK   10  A    between atoms: _26  and  _27
REMARK   11  A    between atoms: _26  and  _29
REMARK   12  A    between atoms: _29  and  _30
REMARK   13  A    between atoms: _30  and  _31
REMARK   14  A    between atoms: _31  and  _32
REMARK   15  A    between atoms: _32  and  _33
REMARK   16  A    between atoms: _37  and  _39
REMARK   17  A    between atoms: _39  and  _40
REMARK   18  A    between atoms: _39  and  _42
REMARK   19  A    between atoms: _45  and  _47
REMARK   20  A    between atoms: _47  and  _48
REMARK   21  A    between atoms: _47  and  _50
REMARK   22  A    between atoms: _50  and  _51
REMARK   23  A    between atoms: _57  and  _59
REMARK   24  A    between atoms: _59  and  _60
REMARK   25  A    between atoms: _59  and  _62
REMARK   26  A    between atoms: _62  and  _63
REMARK   27  A    between atoms: _63  and  _64
REMARK   28  A    between atoms: _64  and  _65
REMARK   29  A    between atoms: _74  and  _76
REMARK   30  A    between atoms: _76  and  _77
REMARK   31  A    between atoms: _79  and  _81
REMARK   32  A    between atoms: _81  and  _82
REMARK   33  A    between atoms: _81  and  _84
REMARK   34  A    between atoms: _84  and  _85
REMARK   35  A    between atoms: _90  and  _91
REMARK   36  A    between atoms: _93  and  _95
REMARK   37  A    between atoms: _95  and  _96
REMARK   38  A    between atoms: _95  and  _98
REMARK   39  A    between atoms: _98  and  _99
REMARK   40  A    between atoms: _99  and  _100
REMARK   41  A    between atoms: _105  and  _107
REMARK   42  A    between atoms: _107  and  _108
REMARK   43  A    between atoms: _107  and  _110
REMARK   44  A    between atoms: _110  and  _111
REMARK   45  A    between atoms: _111  and  _112
REMARK   46  A    between atoms: _112  and  _113
REMARK   47  A    between atoms: _122  and  _124
REMARK   48  A    between atoms: _124  and  _125
REMARK   49  A    between atoms: _127  and  _129
REMARK   50  A    between atoms: _129  and  _130
REMARK   51  A    between atoms: _129  and  _132
REMARK   52  A    between atoms: _132  and  _133
REMARK   53  A    between atoms: _138  and  _140
REMARK   54  A    between atoms: _140  and  _141
REMARK   55  A    between atoms: _140  and  _143
REMARK   56  A    between atoms: _143  and  _144
REMARK   57  A    between atoms: _147  and  _149
REMARK   58  A    between atoms: _149  and  _150
REMARK   59  A    between atoms: _149  and  _152
REMARK   60  A    between atoms: _152  and  _153
REMARK   61  A    between atoms: _156  and  _158
REMARK   62  A    between atoms: _158  and  _159
REMARK   63  A    between atoms: _158  and  _161
REMARK   64  A    between atoms: _161  and  _162
REMARK   65  A    between atoms: _167  and  _169
REMARK   66  A    between atoms: _169  and  _170
REMARK   67  A    between atoms: _169  and  _172
REMARK   68  A    between atoms: _172  and  _173
REMARK   69  A    between atoms: _176  and  _178
REMARK   70  A    between atoms: _178  and  _179
REMARK   71  A    between atoms: _178  and  _181
REMARK   72  A    between atoms: _181  and  _182
REMARK   73  A    between atoms: _187  and  _189
REMARK   74  A    between atoms: _189  and  _190
REMARK   75  A    between atoms: _192  and  _194
REMARK   76  A    between atoms: _194  and  _195
REMARK   77  A    between atoms: _194  and  _197
REMARK   78  A    between atoms: _197  and  _198
REMARK   79  A    between atoms: _202  and  ZN_877
REMARK   80  A    between atoms: _203  and  _205
REMARK   81  A    between atoms: _205  and  _206
REMARK   82  A    between atoms: _205  and  _208
REMARK   83  A    between atoms: _208  and  _209
REMARK   84  A    between atoms: _212  and  _214
REMARK   85  A    between atoms: _214  and  _215
REMARK   86  A    between atoms: _214  and  _217
REMARK   87  A    between atoms: _217  and  _218
REMARK   88  A    between atoms: _228  and  _230
REMARK   89  A    between atoms: _230  and  _231
REMARK   90  A    between atoms: _230  and  _233
REMARK   91  A    between atoms: _233  and  _234
REMARK   92  A    between atoms: _237  and  _239
REMARK   93  A    between atoms: _239  and  _240
REMARK   94  A    between atoms: _239  and  _242
REMARK   95  A    between atoms: _242  and  _243
REMARK   96  A    between atoms: _243  and  _244
REMARK   97  A    between atoms: _243  and  _245
REMARK   98  A    between atoms: _244  and  ZN_877
REMARK   99  A    between atoms: _245  and  ZN_876
REMARK  100  A    between atoms: _247  and  _248
REMARK  101  A    between atoms: _253  and  _255
REMARK  102  A    between atoms: _255  and  _256
REMARK  103  A    between atoms: _259  and  _261
REMARK  104  A    between atoms: _261  and  _262
REMARK  105  A    between atoms: _261  and  _264
REMARK  106  A    between atoms: _264  and  _265
REMARK  107  A    between atoms: _265  and  _266
REMARK  108  A    between atoms: _269  and  _271
REMARK  109  A    between atoms: _271  and  _272
REMARK  110  A    between atoms: _271  and  _274
REMARK  111  A    between atoms: _274  and  _275
REMARK  112  A    between atoms: _275  and  _276
REMARK  113  A    between atoms: _276  and  _278
REMARK  114  A    between atoms: _278  and  ZN_876
REMARK  115  A    between atoms: _279  and  _281
REMARK  116  A    between atoms: _281  and  _282
REMARK  117  A    between atoms: _281  and  _284
REMARK  118  A    between atoms: _284  and  _285
REMARK  119  A    between atoms: _291  and  _293
REMARK  120  A    between atoms: _293  and  _294
REMARK  121  A    between atoms: _296  and  _298
REMARK  122  A    between atoms: _298  and  _299
REMARK  123  A    between atoms: _298  and  _301
REMARK  124  A    between atoms: _301  and  _302
REMARK  125  A    between atoms: _305  and  _307
REMARK  126  A    between atoms: _307  and  _308
REMARK  127  A    between atoms: _307  and  _310
REMARK  128  A    between atoms: _310  and  _311
REMARK  129  A    between atoms: _314  and  _316
REMARK  130  A    between atoms: _316  and  _317
REMARK  131  A    between atoms: _316  and  _319
REMARK  132  A    between atoms: _319  and  _320
REMARK  133  A    between atoms: _325  and  _327
REMARK  134  A    between atoms: _327  and  _328
REMARK  135  A    between atoms: _327  and  _330
REMARK  136  A    between atoms: _330  and  _331
REMARK  137  A    between atoms: _331  and  _333
REMARK  138  A    between atoms: _333  and  ZN_877
REMARK  139  A    between atoms: _334  and  _336
REMARK  140  A    between atoms: _336  and  _337
REMARK  141  A    between atoms: _336  and  _339
REMARK  142  A    between atoms: _339  and  _340
REMARK  143  A    between atoms: _342  and  _344
REMARK  144  A    between atoms: _344  and  _345
REMARK  145  A    between atoms: _344  and  _347
REMARK  146  A    between atoms: _347  and  _348
REMARK  147  A    between atoms: _350  and  _352
REMARK  148  A    between atoms: _352  and  _353
REMARK  149  A    between atoms: _352  and  _355
REMARK  150  A    between atoms: _355  and  _356
REMARK  151  A    between atoms: _359  and  _361
REMARK  152  A    between atoms: _361  and  _362
REMARK  153  A    between atoms: _361  and  _364
REMARK  154  A    between atoms: _364  and  _365
REMARK  155  A    between atoms: _365  and  _366
REMARK  156  A    between atoms: _369  and  _371
REMARK  157  A    between atoms: _371  and  _372
REMARK  158  A    between atoms: _371  and  _374
REMARK  159  A    between atoms: _374  and  _375
REMARK  160  A    between atoms: _380  and  _381
REMARK  161  A    between atoms: _383  and  _385
REMARK  162  A    between atoms: _385  and  _386
REMARK  163  A    between atoms: _385  and  _388
REMARK  164  A    between atoms: _388  and  _389
REMARK  165  A    between atoms: _392  and  _394
REMARK  166  A    between atoms: _394  and  _395
REMARK  167  A    between atoms: _394  and  _397
REMARK  168  A    between atoms: _397  and  _398
REMARK  169  A    between atoms: _401  and  _403
REMARK  170  A    between atoms: _403  and  _404
REMARK  171  A    between atoms: _403  and  _406
REMARK  172  A    between atoms: _406  and  _407
REMARK  173  A    between atoms: _407  and  _408
REMARK  174  A    between atoms: _408  and  _409
REMARK  175  A    between atoms: _418  and  _420
REMARK  176  A    between atoms: _420  and  _421
REMARK  177  A    between atoms: _420  and  _423
REMARK  178  A    between atoms: _426  and  _428
REMARK  179  A    between atoms: _428  and  _429
REMARK  180  A    between atoms: _428  and  _431
REMARK  181  A    between atoms: _431  and  _432
REMARK  182  A    between atoms: _435  and  _437
REMARK  183  A    between atoms: _437  and  _438
REMARK  184  A    between atoms: _437  and  _440
REMARK  185  A    between atoms: _440  and  _441
REMARK  186  A    between atoms: _451  and  _453
REMARK  187  A    between atoms: _453  and  _454
REMARK  188  A    between atoms: _453  and  _456
REMARK  189  A    between atoms: _456  and  _457
REMARK  190  A    between atoms: _457  and  _458
REMARK  191  A    between atoms: _458  and  _459
REMARK  192  A    between atoms: _459  and  _460
REMARK  193  A    between atoms: _464  and  _466
REMARK  194  A    between atoms: _466  and  _467
REMARK  195  A    between atoms: _466  and  _469
REMARK  196  A    between atoms: _469  and  _470
REMARK  197  A    between atoms: _473  and  _474
REMARK  198  A    between atoms: _479  and  _481
REMARK  199  A    between atoms: _481  and  _482
REMARK  200  A    between atoms: _481  and  _484
REMARK  201  A    between atoms: _484  and  _485
REMARK  202  A    between atoms: _485  and  _486
REMARK  203  A    between atoms: _486  and  _487
REMARK  204  A    between atoms: _496  and  _498
REMARK  205  A    between atoms: _498  and  _499
REMARK  206  A    between atoms: _498  and  _501
REMARK  207  A    between atoms: _501  and  _502
REMARK  208  A    between atoms: _505  and  _507
REMARK  209  A    between atoms: _507  and  _508
REMARK  210  A    between atoms: _507  and  _510
REMARK  211  A    between atoms: _510  and  _511
REMARK  212  A    between atoms: _513  and  _515
REMARK  213  A    between atoms: _515  and  _516
REMARK  214  A    between atoms: _515  and  _518
REMARK  215  A    between atoms: _518  and  _519
REMARK  216  A    between atoms: _519  and  _520
REMARK  217  A    between atoms: _520  and  _521
REMARK  218  A    between atoms: _521  and  _522
REMARK  219  A    between atoms: _526  and  _528
REMARK  220  A    between atoms: _528  and  _529
REMARK  221  A    between atoms: _528  and  _531
REMARK  222  A    between atoms: _531  and  _532
REMARK  223  A    between atoms: _535  and  _537
REMARK  224  A    between atoms: _537  and  _538
REMARK  225  A    between atoms: _540  and  _542
REMARK  226  A    between atoms: _542  and  _543
REMARK  227  A    between atoms: _542  and  _545
REMARK  228  A    between atoms: _545  and  _546
REMARK  229  A    between atoms: _548  and  _550
REMARK  230  A    between atoms: _550  and  _551
REMARK  231  A    between atoms: _553  and  _555
REMARK  232  A    between atoms: _555  and  _556
REMARK  233  A    between atoms: _555  and  _558
REMARK  234  A    between atoms: _558  and  _559
REMARK  235  A    between atoms: _564  and  _566
REMARK  236  A    between atoms: _566  and  _567
REMARK  237  A    between atoms: _566  and  _569
REMARK  238  A    between atoms: _569  and  _570
REMARK  239  A    between atoms: _573  and  _575
REMARK  240  A    between atoms: _575  and  _576
REMARK  241  A    between atoms: _575  and  _578
REMARK  242  A    between atoms: _578  and  _579
REMARK  243  A    between atoms: _585  and  _587
REMARK  244  A    between atoms: _587  and  _588
REMARK  245  A    between atoms: _587  and  _590
REMARK  246  A    between atoms: _590  and  _591
REMARK  247  A    between atoms: _591  and  _592
REMARK  248  A    between atoms: _595  and  _597
REMARK  249  A    between atoms: _597  and  _598
REMARK  250  A    between atoms: _597  and  _600
REMARK  251  A    between atoms: _600  and  _601
REMARK  252  A    between atoms: _601  and  _602
REMARK  253  A    between atoms: _602  and  _603
REMARK  254  A    between atoms: _612  and  _614
REMARK  255  A    between atoms: _614  and  _615
REMARK  256  A    between atoms: _614  and  _617
REMARK  257  A    between atoms: _617  and  _618
REMARK  258  A    between atoms: _618  and  _619
REMARK  259  A    between atoms: _619  and  _620
REMARK  260  A    between atoms: _629  and  _631
REMARK  261  A    between atoms: _631  and  _632
REMARK  262  A    between atoms: _631  and  _634
REMARK  263  A    between atoms: _634  and  _635
REMARK  264  A    between atoms: _640  and  _641
REMARK  265  A    between atoms: _643  and  _645
REMARK  266  A    between atoms: _645  and  _646
REMARK  267  A    between atoms: _645  and  _648
REMARK  268  A    between atoms: _648  and  _649
REMARK  269  A    between atoms: _652  and  _654
REMARK  270  A    between atoms: _654  and  _655
REMARK  271  A    between atoms: _654  and  _657
REMARK  272  A    between atoms: _657  and  _658
REMARK  273  A    between atoms: _658  and  _659
REMARK  274  A    between atoms: _659  and  _660
REMARK  275  A    between atoms: _660  and  _661
REMARK  276  A    between atoms: _665  and  _667
REMARK  277  A    between atoms: _667  and  _668
REMARK  278  A    between atoms: _667  and  _670
REMARK  279  A    between atoms: _670  and  _671
REMARK  280  A    between atoms: _676  and  _678
REMARK  281  A    between atoms: _678  and  _679
REMARK  282  A    between atoms: _678  and  _681
REMARK  283  A    between atoms: _681  and  _682
REMARK  284  A    between atoms: _692  and  _694
REMARK  285  A    between atoms: _694  and  _695
REMARK  286  A    between atoms: _694  and  _697
REMARK  287  A    between atoms: _697  and  _698
REMARK  288  A    between atoms: _698  and  _699
REMARK  289  A    between atoms: _702  and  _704
REMARK  290  A    between atoms: _704  and  _705
REMARK  291  A    between atoms: _704  and  _707
REMARK  292  A    between atoms: _707  and  _708
REMARK  293  A    between atoms: _711  and  _713
REMARK  294  A    between atoms: _713  and  _714
REMARK  295  A    between atoms: _713  and  _716
REMARK  296  A    between atoms: _716  and  _717
REMARK  297  A    between atoms: _722  and  _724
REMARK  298  A    between atoms: _724  and  _725
REMARK  299  A    between atoms: _724  and  _727
REMARK  300  A    between atoms: _727  and  _728
REMARK  301  A    between atoms: _734  and  _736
REMARK  302  A    between atoms: _736  and  _737
REMARK  303  A    between atoms: _736  and  _739
REMARK  304  A    between atoms: _739  and  _740
REMARK  305  A    between atoms: _742  and  _744
REMARK  306  A    between atoms: _744  and  _745
REMARK  307  A    between atoms: _747  and  _749
REMARK  308  A    between atoms: _749  and  _750
REMARK  309  A    between atoms: _749  and  _752
REMARK  310  A    between atoms: _752  and  _753
REMARK  311  A    between atoms: _758  and  _759
REMARK  312  A    between atoms: _761  and  _763
REMARK  313  A    between atoms: _763  and  _764
REMARK  314  A    between atoms: _763  and  _766
REMARK  315  A    between atoms: _766  and  _767
REMARK  316  A    between atoms: _772  and  _773
REMARK  317  A    between atoms: _775  and  _777
REMARK  318  A    between atoms: _777  and  _778
REMARK  319  A    between atoms: _777  and  _780
REMARK  320  A    between atoms: _780  and  _781
REMARK  321  A    between atoms: _785  and  ZN_876
REMARK  322  A    between atoms: _786  and  _788
REMARK  323  A    between atoms: _788  and  _789
REMARK  324  A    between atoms: _788  and  _791
REMARK  325  A    between atoms: _791  and  _792
REMARK  326  A    between atoms: _792  and  _793
REMARK  327  A    between atoms: _796  and  _798
REMARK  328  A    between atoms: _798  and  _799
REMARK  329  A    between atoms: _798  and  _801
REMARK  330  A    between atoms: _801  and  _802
REMARK  331  A    between atoms: _802  and  _803
REMARK  332  A    between atoms: _803  and  _804
REMARK  333  A    between atoms: _813  and  _815
REMARK  334  A    between atoms: _815  and  _816
REMARK  335  A    between atoms: _815  and  _818
REMARK  336  A    between atoms: _818  and  _819
REMARK  337  A    between atoms: _824  and  _825
REMARK  338  A    between atoms: _827  and  _829
REMARK  339  A    between atoms: _829  and  _830
REMARK  340  A    between atoms: _829  and  _832
REMARK  341  A    between atoms: _832  and  _833
REMARK  342  A    between atoms: _838  and  _840
REMARK  343  A    between atoms: _840  and  _841
REMARK  344  A    between atoms: _840  and  _843
REMARK  345  A    between atoms: _843  and  _844
REMARK  346  A    between atoms: _844  and  _845
REMARK  347  A    between atoms: _845  and  _846
REMARK  348  A    between atoms: _846  and  _847
REMARK  349  A    between atoms: _851  and  _853
REMARK  350  A    between atoms: _853  and  _854
REMARK  351  A    between atoms: _853  and  _856
REMARK  352  A    between atoms: _856  and  _857
REMARK  353  A    between atoms: _862  and  _863
REMARK  354  A    between atoms: _865  and  _867
REMARK  355  A    between atoms: _867  and  _868
REMARK  356  A    between atoms: _871  and  _873
REMARK  357  A    between atoms: _873  and  _874
REMARK                            x       y       z     vdW  Elec       q    Type
REMARK                         _______ _______ _______ _____ _____    ______ ____
ROOT
ATOM      1  O   HOH     1      24.772  44.001  45.328  0.00  0.00    +0.000 OA
ENDROOT
TORSDOF 0
REMARK  Name = ../refined-set-2016/2xei/2xei_pocket.pdb
REMARK  357 active torsions:
REMARK  status: ('A' for Active; 'I' for Inactive)
REMARK    1  A    between atoms: _1  and  _3
REMARK    2  A    between atoms: _3  and  _4
REMARK    3  A    between atoms: _7  and  _9
REMARK    4  A    between atoms: _9  and  _10
REMARK    5  A    between atoms: _9  and  _12
REMARK    6  A    between atoms: _12  and  _13
REMARK    7  A    between atoms: _19  and  _21
REMARK    8  A    between atoms: _21  and  _22
REMARK    9  A    between atoms: _24  and  _26
REMARK   10  A    between atoms: _26  and  _27
REMARK   11  A    between atoms: _26  and  _29
REMARK   12  A    between atoms: _29  and  _30
REMARK   13  A    between atoms: _30  and  _31
REMARK   14  A    between atoms: _31  and  _32
REMARK   15  A    between atoms: _32  and  _33
REMARK   16  A    between atoms: _37  and  _39
REMARK   17  A    between atoms: _39  and  _40
REMARK   18  A    between atoms: _39  and  _42
REMARK   19  A    between atoms: _45  and  _47
REMARK   20  A    between atoms: _47  and  _48
REMARK   21  A    between atoms: _47  and  _50
REMARK   22  A    between atoms: _50  and  _51
REMARK   23  A    between atoms: _57  and  _59
REMARK   24  A    between atoms: _59  and  _60
REMARK   25  A    between atoms: _59  and  _62
REMARK   26  A    between atoms: _62  and  _63
REMARK   27  A    between atoms: _63  and  _64
REMARK   28  A    between atoms: _64  and  _65
REMARK   29  A    between atoms: _74  and  _76
REMARK   30  A    between atoms: _76  and  _77
REMARK   31  A    between atoms: _79  and  _81
REMARK   32  A    between atoms: _81  and  _82
REMARK   33  A    between atoms: _81  and  _84
REMARK   34  A    between atoms: _84  and  _85
REMARK   35  A    between atoms: _90  and  _91
REMARK   36  A    between atoms: _93  and  _95
REMARK   37  A    between atoms: _95  and  _96
REMARK   38  A    between atoms: _95  and  _98
REMARK   39  A    between atoms: _98  and  _99
REMARK   40  A    between atoms: _99  and  _100
REMARK   41  A    between atoms: _105  and  _107
REMARK   42  A    between atoms: _107  and  _108
REMARK   43  A    between atoms: _107  and  _110
REMARK   44  A    between atoms: _110  and  _111
REMARK   45  A    between atoms: _111  and  _112
REMARK   46  A    between atoms: _112  and  _113
REMARK   47  A    between atoms: _122  and  _124
REMARK   48  A    between atoms: _124  and  _125
REMARK   49  A    between atoms: _127  and  _129
REMARK   50  A    between atoms: _129  and  _130
REMARK   51  A    between atoms: _129  and  _132
REMARK   52  A    between atoms: _132  and  _133
REMARK   53  A    between atoms: _138  and  _140
REMARK   54  A    between atoms: _140  and  _141
REMARK   55  A    between atoms: _140  and  _143
REMARK   56  A    between atoms: _143  and  _144
REMARK   57  A    between atoms: _147  and  _149
REMARK   58  A    between atoms: _149  and  _150
REMARK   59  A    between atoms: _149  and  _152
REMARK   60  A    between atoms: _152  and  _153
REMARK   61  A    between atoms: _156  and  _158
REMARK   62  A    between atoms: _158  and  _159
REMARK   63  A    between atoms: _158  and  _161
REMARK   64  A    between atoms: _161  and  _162
REMARK   65  A    between atoms: _167  and  _169
REMARK   66  A    between atoms: _169  and  _170
REMARK   67  A    between atoms: _169  and  _172
REMARK   68  A    between atoms: _172  and  _173
REMARK   69  A    between atoms: _176  and  _178
REMARK   70  A    between atoms: _178  and  _179
REMARK   71  A    between atoms: _178  and  _181
REMARK   72  A    between atoms: _181  and  _182
REMARK   73  A    between atoms: _187  and  _189
REMARK   74  A    between atoms: _189  and  _190
REMARK   75  A    between atoms: _192  and  _194
REMARK   76  A    between atoms: _194  and  _195
REMARK   77  A    between atoms: _194  and  _197
REMARK   78  A    between atoms: _197  and  _198
REMARK   79  A    between atoms: _202  and  ZN_877
REMARK   80  A    between atoms: _203  and  _205
REMARK   81  A    between atoms: _205  and  _206
REMARK   82  A    between atoms: _205  and  _208
REMARK   83  A    between atoms: _208  and  _209
REMARK   84  A    between atoms: _212  and  _214
REMARK   85  A    between atoms: _214  and  _215
REMARK   86  A    between atoms: _214  and  _217
REMARK   87  A    between atoms: _217  and  _218
REMARK   88  A    between atoms: _228  and  _230
REMARK   89  A    between atoms: _230  and  _231
REMARK   90  A    between atoms: _230  and  _233
REMARK   91  A    between atoms: _233  and  _234
REMARK   92  A    between atoms: _237  and  _239
REMARK   93  A    between atoms: _239  and  _240
REMARK   94  A    between atoms: _239  and  _242
REMARK   95  A    between atoms: _242  and  _243
REMARK   96  A    between atoms: _243  and  _244
REMARK   97  A    between atoms: _243  and  _245
REMARK   98  A    between atoms: _244  and  ZN_877
REMARK   99  A    between atoms: _245  and  ZN_876
REMARK  100  A    between atoms: _247  and  _248
REMARK  101  A    between atoms: _253  and  _255
REMARK  102  A    between atoms: _255  and  _256
REMARK  103  A    between atoms: _259  and  _261
REMARK  104  A    between atoms: _261  and  _262
REMARK  105  A    between atoms: _261  and  _264
REMARK  106  A    between atoms: _264  and  _265
REMARK  107  A    between atoms: _265  and  _266
REMARK  108  A    between atoms: _269  and  _271
REMARK  109  A    between atoms: _271  and  _272
REMARK  110  A    between atoms: _271  and  _274
REMARK  111  A    between atoms: _274  and  _275
REMARK  112  A    between atoms: _275  and  _276
REMARK  113  A    between atoms: _276  and  _278
REMARK  114  A    between atoms: _278  and  ZN_876
REMARK  115  A    between atoms: _279  and  _281
REMARK  116  A    between atoms: _281  and  _282
REMARK  117  A    between atoms: _281  and  _284
REMARK  118  A    between atoms: _284  and  _285
REMARK  119  A    between atoms: _291  and  _293
REMARK  120  A    between atoms: _293  and  _294
REMARK  121  A    between atoms: _296  and  _298
REMARK  122  A    between atoms: _298  and  _299
REMARK  123  A    between atoms: _298  and  _301
REMARK  124  A    between atoms: _301  and  _302
REMARK  125  A    between atoms: _305  and  _307
REMARK  126  A    between atoms: _307  and  _308
REMARK  127  A    between atoms: _307  and  _310
REMARK  128  A    between atoms: _310  and  _311
REMARK  129  A    between atoms: _314  and  _316
REMARK  130  A    between atoms: _316  and  _317
REMARK  131  A    between atoms: _316  and  _319
REMARK  132  A    between atoms: _319  and  _320
REMARK  133  A    between atoms: _325  and  _327
REMARK  134  A    between atoms: _327  and  _328
REMARK  135  A    between atoms: _327  and  _330
REMARK  136  A    between atoms: _330  and  _331
REMARK  137  A    between atoms: _331  and  _333
REMARK  138  A    between atoms: _333  and  ZN_877
REMARK  139  A    between atoms: _334  and  _336
REMARK  140  A    between atoms: _336  and  _337
REMARK  141  A    between atoms: _336  and  _339
REMARK  142  A    between atoms: _339  and  _340
REMARK  143  A    between atoms: _342  and  _344
REMARK  144  A    between atoms: _344  and  _345
REMARK  145  A    between atoms: _344  and  _347
REMARK  146  A    between atoms: _347  and  _348
REMARK  147  A    between atoms: _350  and  _352
REMARK  148  A    between atoms: _352  and  _353
REMARK  149  A    between atoms: _352  and  _355
REMARK  150  A    between atoms: _355  and  _356
REMARK  151  A    between atoms: _359  and  _361
REMARK  152  A    between atoms: _361  and  _362
REMARK  153  A    between atoms: _361  and  _364
REMARK  154  A    between atoms: _364  and  _365
REMARK  155  A    between atoms: _365  and  _366
REMARK  156  A    between atoms: _369  and  _371
REMARK  157  A    between atoms: _371  and  _372
REMARK  158  A    between atoms: _371  and  _374
REMARK  159  A    between atoms: _374  and  _375
REMARK  160  A    between atoms: _380  and  _381
REMARK  161  A    between atoms: _383  and  _385
REMARK  162  A    between atoms: _385  and  _386
REMARK  163  A    between atoms: _385  and  _388
REMARK  164  A    between atoms: _388  and  _389
REMARK  165  A    between atoms: _392  and  _394
REMARK  166  A    between atoms: _394  and  _395
REMARK  167  A    between atoms: _394  and  _397
REMARK  168  A    between atoms: _397  and  _398
REMARK  169  A    between atoms: _401  and  _403
REMARK  170  A    between atoms: _403  and  _404
REMARK  171  A    between atoms: _403  and  _406
REMARK  172  A    between atoms: _406  and  _407
REMARK  173  A    between atoms: _407  and  _408
REMARK  174  A    between atoms: _408  and  _409
REMARK  175  A    between atoms: _418  and  _420
REMARK  176  A    between atoms: _420  and  _421
REMARK  177  A    between atoms: _420  and  _423
REMARK  178  A    between atoms: _426  and  _428
REMARK  179  A    between atoms: _428  and  _429
REMARK  180  A    between atoms: _428  and  _431
REMARK  181  A    between atoms: _431  and  _432
REMARK  182  A    between atoms: _435  and  _437
REMARK  183  A    between atoms: _437  and  _438
REMARK  184  A    between atoms: _437  and  _440
REMARK  185  A    between atoms: _440  and  _441
REMARK  186  A    between atoms: _451  and  _453
REMARK  187  A    between atoms: _453  and  _454
REMARK  188  A    between atoms: _453  and  _456
REMARK  189  A    between atoms: _456  and  _457
REMARK  190  A    between atoms: _457  and  _458
REMARK  191  A    between atoms: _458  and  _459
REMARK  192  A    between atoms: _459  and  _460
REMARK  193  A    between atoms: _464  and  _466
REMARK  194  A    between atoms: _466  and  _467
REMARK  195  A    between atoms: _466  and  _469
REMARK  196  A    between atoms: _469  and  _470
REMARK  197  A    between atoms: _473  and  _474
REMARK  198  A    between atoms: _479  and  _481
REMARK  199  A    between atoms: _481  and  _482
REMARK  200  A    between atoms: _481  and  _484
REMARK  201  A    between atoms: _484  and  _485
REMARK  202  A    between atoms: _485  and  _486
REMARK  203  A    between atoms: _486  and  _487
REMARK  204  A    between atoms: _496  and  _498
REMARK  205  A    between atoms: _498  and  _499
REMARK  206  A    between atoms: _498  and  _501
REMARK  207  A    between atoms: _501  and  _502
REMARK  208  A    between atoms: _505  and  _507
REMARK  209  A    between atoms: _507  and  _508
REMARK  210  A    between atoms: _507  and  _510
REMARK  211  A    between atoms: _510  and  _511
REMARK  212  A    between atoms: _513  and  _515
REMARK  213  A    between atoms: _515  and  _516
REMARK  214  A    between atoms: _515  and  _518
REMARK  215  A    between atoms: _518  and  _519
REMARK  216  A    between atoms: _519  and  _520
REMARK  217  A    between atoms: _520  and  _521
REMARK  218  A    between atoms: _521  and  _522
REMARK  219  A    between atoms: _526  and  _528
REMARK  220  A    between atoms: _528  and  _529
REMARK  221  A    between atoms: _528  and  _531
REMARK  222  A    between atoms: _531  and  _532
REMARK  223  A    between atoms: _535  and  _537
REMARK  224  A    between atoms: _537  and  _538
REMARK  225  A    between atoms: _540  and  _542
REMARK  226  A    between atoms: _542  and  _543
REMARK  227  A    between atoms: _542  and  _545
REMARK  228  A    between atoms: _545  and  _546
REMARK  229  A    between atoms: _548  and  _550
REMARK  230  A    between atoms: _550  and  _551
REMARK  231  A    between atoms: _553  and  _555
REMARK  232  A    between atoms: _555  and  _556
REMARK  233  A    between atoms: _555  and  _558
REMARK  234  A    between atoms: _558  and  _559
REMARK  235  A    between atoms: _564  and  _566
REMARK  236  A    between atoms: _566  and  _567
REMARK  237  A    between atoms: _566  and  _569
REMARK  238  A    between atoms: _569  and  _570
REMARK  239  A    between atoms: _573  and  _575
REMARK  240  A    between atoms: _575  and  _576
REMARK  241  A    between atoms: _575  and  _578
REMARK  242  A    between atoms: _578  and  _579
REMARK  243  A    between atoms: _585  and  _587
REMARK  244  A    between atoms: _587  and  _588
REMARK  245  A    between atoms: _587  and  _590
REMARK  246  A    between atoms: _590  and  _591
REMARK  247  A    between atoms: _591  and  _592
REMARK  248  A    between atoms: _595  and  _597
REMARK  249  A    between atoms: _597  and  _598
REMARK  250  A    between atoms: _597  and  _600
REMARK  251  A    between atoms: _600  and  _601
REMARK  252  A    between atoms: _601  and  _602
REMARK  253  A    between atoms: _602  and  _603
REMARK  254  A    between atoms: _612  and  _614
REMARK  255  A    between atoms: _614  and  _615
REMARK  256  A    between atoms: _614  and  _617
REMARK  257  A    between atoms: _617  and  _618
REMARK  258  A    between atoms: _618  and  _619
REMARK  259  A    between atoms: _619  and  _620
REMARK  260  A    between atoms: _629  and  _631
REMARK  261  A    between atoms: _631  and  _632
REMARK  262  A    between atoms: _631  and  _634
REMARK  263  A    between atoms: _634  and  _635
REMARK  264  A    between atoms: _640  and  _641
REMARK  265  A    between atoms: _643  and  _645
REMARK  266  A    between atoms: _645  and  _646
REMARK  267  A    between atoms: _645  and  _648
REMARK  268  A    between atoms: _648  and  _649
REMARK  269  A    between atoms: _652  and  _654
REMARK  270  A    between atoms: _654  and  _655
REMARK  271  A    between atoms: _654  and  _657
REMARK  272  A    between atoms: _657  and  _658
REMARK  273  A    between atoms: _658  and  _659
REMARK  274  A    between atoms: _659  and  _660
REMARK  275  A    between atoms: _660  and  _661
REMARK  276  A    between atoms: _665  and  _667
REMARK  277  A    between atoms: _667  and  _668
REMARK  278  A    between atoms: _667  and  _670
REMARK  279  A    between atoms: _670  and  _671
REMARK  280  A    between atoms: _676  and  _678
REMARK  281  A    between atoms: _678  and  _679
REMARK  282  A    between atoms: _678  and  _681
REMARK  283  A    between atoms: _681  and  _682
REMARK  284  A    between atoms: _692  and  _694
REMARK  285  A    between atoms: _694  and  _695
REMARK  286  A    between atoms: _694  and  _697
REMARK  287  A    between atoms: _697  and  _698
REMARK  288  A    between atoms: _698  and  _699
REMARK  289  A    between atoms: _702  and  _704
REMARK  290  A    between atoms: _704  and  _705
REMARK  291  A    between atoms: _704  and  _707
REMARK  292  A    between atoms: _707  and  _708
REMARK  293  A    between atoms: _711  and  _713
REMARK  294  A    between atoms: _713  and  _714
REMARK  295  A    between atoms: _713  and  _716
REMARK  296  A    between atoms: _716  and  _717
REMARK  297  A    between atoms: _722  and  _724
REMARK  298  A    between atoms: _724  and  _725
REMARK  299  A    between atoms: _724  and  _727
REMARK  300  A    between atoms: _727  and  _728
REMARK  301  A    between atoms: _734  and  _736
REMARK  302  A    between atoms: _736  and  _737
REMARK  303  A    between atoms: _736  and  _739
REMARK  304  A    between atoms: _739  and  _740
REMARK  305  A    between atoms: _742  and  _744
REMARK  306  A    between atoms: _744  and  _745
REMARK  307  A    between atoms: _747  and  _749
REMARK  308  A    between atoms: _749  and  _750
REMARK  309  A    between atoms: _749  and  _752
REMARK  310  A    between atoms: _752  and  _753
REMARK  311  A    between atoms: _758  and  _759
REMARK  312  A    between atoms: _761  and  _763
REMARK  313  A    between atoms: _763  and  _764
REMARK  314  A    between atoms: _763  and  _766
REMARK  315  A    between atoms: _766  and  _767
REMARK  316  A    between atoms: _772  and  _773
REMARK  317  A    between atoms: _775  and  _777
REMARK  318  A    between atoms: _777  and  _778
REMARK  319  A    between atoms: _777  and  _780
REMARK  320  A    between atoms: _780  and  _781
REMARK  321  A    between atoms: _785  and  ZN_876
REMARK  322  A    between atoms: _786  and  _788
REMARK  323  A    between atoms: _788  and  _789
REMARK  324  A    between atoms: _788  and  _791
REMARK  325  A    between atoms: _791  and  _792
REMARK  326  A    between atoms: _792  and  _793
REMARK  327  A    between atoms: _796  and  _798
REMARK  328  A    between atoms: _798  and  _799
REMARK  329  A    between atoms: _798  and  _801
REMARK  330  A    between atoms: _801  and  _802
REMARK  331  A    between atoms: _802  and  _803
REMARK  332  A    between atoms: _803  and  _804
REMARK  333  A    between atoms: _813  and  _815
REMARK  334  A    between atoms: _815  and  _816
REMARK  335  A    between atoms: _815  and  _818
REMARK  336  A    between atoms: _818  and  _819
REMARK  337  A    between atoms: _824  and  _825
REMARK  338  A    between atoms: _827  and  _829
REMARK  339  A    between atoms: _829  and  _830
REMARK  340  A    between atoms: _829  and  _832
REMARK  341  A    between atoms: _832  and  _833
REMARK  342  A    between atoms: _838  and  _840
REMARK  343  A    between atoms: _840  and  _841
REMARK  344  A    between atoms: _840  and  _843
REMARK  345  A    between atoms: _843  and  _844
REMARK  346  A    between atoms: _844  and  _845
REMARK  347  A    between atoms: _845  and  _846
REMARK  348  A    between atoms: _846  and  _847
REMARK  349  A    between atoms: _851  and  _853
REMARK  350  A    between atoms: _853  and  _854
REMARK  351  A    between atoms: _853  and  _856
REMARK  352  A    between atoms: _856  and  _857
REMARK  353  A    between atoms: _862  and  _863
REMARK  354  A    between atoms: _865  and  _867
REMARK  355  A    between atoms: _867  and  _868
REMARK  356  A    between atoms: _871  and  _873
REMARK  357  A    between atoms: _873  and  _874
REMARK                            x       y       z     vdW  Elec       q    Type
REMARK                         _______ _______ _______ _____ _____    ______ ____
ROOT
ATOM      1  O   HOH     1      39.630  50.772  52.147  0.00  0.00    +0.000 OA
ENDROOT
TORSDOF 0
REMARK  Name = ../refined-set-2016/2xei/2xei_pocket.pdb
REMARK  357 active torsions:
REMARK  status: ('A' for Active; 'I' for Inactive)
REMARK    1  A    between atoms: _1  and  _3
REMARK    2  A    between atoms: _3  and  _4
REMARK    3  A    between atoms: _7  and  _9
REMARK    4  A    between atoms: _9  and  _10
REMARK    5  A    between atoms: _9  and  _12
REMARK    6  A    between atoms: _12  and  _13
REMARK    7  A    between atoms: _19  and  _21
REMARK    8  A    between atoms: _21  and  _22
REMARK    9  A    between atoms: _24  and  _26
REMARK   10  A    between atoms: _26  and  _27
REMARK   11  A    between atoms: _26  and  _29
REMARK   12  A    between atoms: _29  and  _30
REMARK   13  A    between atoms: _30  and  _31
REMARK   14  A    between atoms: _31  and  _32
REMARK   15  A    between atoms: _32  and  _33
REMARK   16  A    between atoms: _37  and  _39
REMARK   17  A    between atoms: _39  and  _40
REMARK   18  A    between atoms: _39  and  _42
REMARK   19  A    between atoms: _45  and  _47
REMARK   20  A    between atoms: _47  and  _48
REMARK   21  A    between atoms: _47  and  _50
REMARK   22  A    between atoms: _50  and  _51
REMARK   23  A    between atoms: _57  and  _59
REMARK   24  A    between atoms: _59  and  _60
REMARK   25  A    between atoms: _59  and  _62
REMARK   26  A    between atoms: _62  and  _63
REMARK   27  A    between atoms: _63  and  _64
REMARK   28  A    between atoms: _64  and  _65
REMARK   29  A    between atoms: _74  and  _76
REMARK   30  A    between atoms: _76  and  _77
REMARK   31  A    between atoms: _79  and  _81
REMARK   32  A    between atoms: _81  and  _82
REMARK   33  A    between atoms: _81  and  _84
REMARK   34  A    between atoms: _84  and  _85
REMARK   35  A    between atoms: _90  and  _91
REMARK   36  A    between atoms: _93  and  _95
REMARK   37  A    between atoms: _95  and  _96
REMARK   38  A    between atoms: _95  and  _98
REMARK   39  A    between atoms: _98  and  _99
REMARK   40  A    between atoms: _99  and  _100
REMARK   41  A    between atoms: _105  and  _107
REMARK   42  A    between atoms: _107  and  _108
REMARK   43  A    between atoms: _107  and  _110
REMARK   44  A    between atoms: _110  and  _111
REMARK   45  A    between atoms: _111  and  _112
REMARK   46  A    between atoms: _112  and  _113
REMARK   47  A    between atoms: _122  and  _124
REMARK   48  A    between atoms: _124  and  _125
REMARK   49  A    between atoms: _127  and  _129
REMARK   50  A    between atoms: _129  and  _130
REMARK   51  A    between atoms: _129  and  _132
REMARK   52  A    between atoms: _132  and  _133
REMARK   53  A    between atoms: _138  and  _140
REMARK   54  A    between atoms: _140  and  _141
REMARK   55  A    between atoms: _140  and  _143
REMARK   56  A    between atoms: _143  and  _144
REMARK   57  A    between atoms: _147  and  _149
REMARK   58  A    between atoms: _149  and  _150
REMARK   59  A    between atoms: _149  and  _152
REMARK   60  A    between atoms: _152  and  _153
REMARK   61  A    between atoms: _156  and  _158
REMARK   62  A    between atoms: _158  and  _159
REMARK   63  A    between atoms: _158  and  _161
REMARK   64  A    between atoms: _161  and  _162
REMARK   65  A    between atoms: _167  and  _169
REMARK   66  A    between atoms: _169  and  _170
REMARK   67  A    between atoms: _169  and  _172
REMARK   68  A    between atoms: _172  and  _173
REMARK   69  A    between atoms: _176  and  _178
REMARK   70  A    between atoms: _178  and  _179
REMARK   71  A    between atoms: _178  and  _181
REMARK   72  A    between atoms: _181  and  _182
REMARK   73  A    between atoms: _187  and  _189
REMARK   74  A    between atoms: _189  and  _190
REMARK   75  A    between atoms: _192  and  _194
REMARK   76  A    between atoms: _194  and  _195
REMARK   77  A    between atoms: _194  and  _197
REMARK   78  A    between atoms: _197  and  _198
REMARK   79  A    between atoms: _202  and  ZN_877
REMARK   80  A    between atoms: _203  and  _205
REMARK   81  A    between atoms: _205  and  _206
REMARK   82  A    between atoms: _205  and  _208
REMARK   83  A    between atoms: _208  and  _209
REMARK   84  A    between atoms: _212  and  _214
REMARK   85  A    between atoms: _214  and  _215
REMARK   86  A    between atoms: _214  and  _217
REMARK   87  A    between atoms: _217  and  _218
REMARK   88  A    between atoms: _228  and  _230
REMARK   89  A    between atoms: _230  and  _231
REMARK   90  A    between atoms: _230  and  _233
REMARK   91  A    between atoms: _233  and  _234
REMARK   92  A    between atoms: _237  and  _239
REMARK   93  A    between atoms: _239  and  _240
REMARK   94  A    between atoms: _239  and  _242
REMARK   95  A    between atoms: _242  and  _243
REMARK   96  A    between atoms: _243  and  _244
REMARK   97  A    between atoms: _243  and  _245
REMARK   98  A    between atoms: _244  and  ZN_877
REMARK   99  A    between atoms: _245  and  ZN_876
REMARK  100  A    between atoms: _247  and  _248
REMARK  101  A    between atoms: _253  and  _255
REMARK  102  A    between atoms: _255  and  _256
REMARK  103  A    between atoms: _259  and  _261
REMARK  104  A    between atoms: _261  and  _262
REMARK  105  A    between atoms: _261  and  _264
REMARK  106  A    between atoms: _264  and  _265
REMARK  107  A    between atoms: _265  and  _266
REMARK  108  A    between atoms: _269  and  _271
REMARK  109  A    between atoms: _271  and  _272
REMARK  110  A    between atoms: _271  and  _274
REMARK  111  A    between atoms: _274  and  _275
REMARK  112  A    between atoms: _275  and  _276
REMARK  113  A    between atoms: _276  and  _278
REMARK  114  A    between atoms: _278  and  ZN_876
REMARK  115  A    between atoms: _279  and  _281
REMARK  116  A    between atoms: _281  and  _282
REMARK  117  A    between atoms: _281  and  _284
REMARK  118  A    between atoms: _284  and  _285
REMARK  119  A    between atoms: _291  and  _293
REMARK  120  A    between atoms: _293  and  _294
REMARK  121  A    between atoms: _296  and  _298
REMARK  122  A    between atoms: _298  and  _299
REMARK  123  A    between atoms: _298  and  _301
REMARK  124  A    between atoms: _301  and  _302
REMARK  125  A    between atoms: _305  and  _307
REMARK  126  A    between atoms: _307  and  _308
REMARK  127  A    between atoms: _307  and  _310
REMARK  128  A    between atoms: _310  and  _311
REMARK  129  A    between atoms: _314  and  _316
REMARK  130  A    between atoms: _316  and  _317
REMARK  131  A    between atoms: _316  and  _319
REMARK  132  A    between atoms: _319  and  _320
REMARK  133  A    between atoms: _325  and  _327
REMARK  134  A    between atoms: _327  and  _328
REMARK  135  A    between atoms: _327  and  _330
REMARK  136  A    between atoms: _330  and  _331
REMARK  137  A    between atoms: _331  and  _333
REMARK  138  A    between atoms: _333  and  ZN_877
REMARK  139  A    between atoms: _334  and  _336
REMARK  140  A    between atoms: _336  and  _337
REMARK  141  A    between atoms: _336  and  _339
REMARK  142  A    between atoms: _339  and  _340
REMARK  143  A    between atoms: _342  and  _344
REMARK  144  A    between atoms: _344  and  _345
REMARK  145  A    between atoms: _344  and  _347
REMARK  146  A    between atoms: _347  and  _348
REMARK  147  A    between atoms: _350  and  _352
REMARK  148  A    between atoms: _352  and  _353
REMARK  149  A    between atoms: _352  and  _355
REMARK  150  A    between atoms: _355  and  _356
REMARK  151  A    between atoms: _359  and  _361
REMARK  152  A    between atoms: _361  and  _362
REMARK  153  A    between atoms: _361  and  _364
REMARK  154  A    between atoms: _364  and  _365
REMARK  155  A    between atoms: _365  and  _366
REMARK  156  A    between atoms: _369  and  _371
REMARK  157  A    between atoms: _371  and  _372
REMARK  158  A    between atoms: _371  and  _374
REMARK  159  A    between atoms: _374  and  _375
REMARK  160  A    between atoms: _380  and  _381
REMARK  161  A    between atoms: _383  and  _385
REMARK  162  A    between atoms: _385  and  _386
REMARK  163  A    between atoms: _385  and  _388
REMARK  164  A    between atoms: _388  and  _389
REMARK  165  A    between atoms: _392  and  _394
REMARK  166  A    between atoms: _394  and  _395
REMARK  167  A    between atoms: _394  and  _397
REMARK  168  A    between atoms: _397  and  _398
REMARK  169  A    between atoms: _401  and  _403
REMARK  170  A    between atoms: _403  and  _404
REMARK  171  A    between atoms: _403  and  _406
REMARK  172  A    between atoms: _406  and  _407
REMARK  173  A    between atoms: _407  and  _408
REMARK  174  A    between atoms: _408  and  _409
REMARK  175  A    between atoms: _418  and  _420
REMARK  176  A    between atoms: _420  and  _421
REMARK  177  A    between atoms: _420  and  _423
REMARK  178  A    between atoms: _426  and  _428
REMARK  179  A    between atoms: _428  and  _429
REMARK  180  A    between atoms: _428  and  _431
REMARK  181  A    between atoms: _431  and  _432
REMARK  182  A    between atoms: _435  and  _437
REMARK  183  A    between atoms: _437  and  _438
REMARK  184  A    between atoms: _437  and  _440
REMARK  185  A    between atoms: _440  and  _441
REMARK  186  A    between atoms: _451  and  _453
REMARK  187  A    between atoms: _453  and  _454
REMARK  188  A    between atoms: _453  and  _456
REMARK  189  A    between atoms: _456  and  _457
REMARK  190  A    between atoms: _457  and  _458
REMARK  191  A    between atoms: _458  and  _459
REMARK  192  A    between atoms: _459  and  _460
REMARK  193  A    between atoms: _464  and  _466
REMARK  194  A    between atoms: _466  and  _467
REMARK  195  A    between atoms: _466  and  _469
REMARK  196  A    between atoms: _469  and  _470
REMARK  197  A    between atoms: _473  and  _474
REMARK  198  A    between atoms: _479  and  _481
REMARK  199  A    between atoms: _481  and  _482
REMARK  200  A    between atoms: _481  and  _484
REMARK  201  A    between atoms: _484  and  _485
REMARK  202  A    between atoms: _485  and  _486
REMARK  203  A    between atoms: _486  and  _487
REMARK  204  A    between atoms: _496  and  _498
REMARK  205  A    between atoms: _498  and  _499
REMARK  206  A    between atoms: _498  and  _501
REMARK  207  A    between atoms: _501  and  _502
REMARK  208  A    between atoms: _505  and  _507
REMARK  209  A    between atoms: _507  and  _508
REMARK  210  A    between atoms: _507  and  _510
REMARK  211  A    between atoms: _510  and  _511
REMARK  212  A    between atoms: _513  and  _515
REMARK  213  A    between atoms: _515  and  _516
REMARK  214  A    between atoms: _515  and  _518
REMARK  215  A    between atoms: _518  and  _519
REMARK  216  A    between atoms: _519  and  _520
REMARK  217  A    between atoms: _520  and  _521
REMARK  218  A    between atoms: _521  and  _522
REMARK  219  A    between atoms: _526  and  _528
REMARK  220  A    between atoms: _528  and  _529
REMARK  221  A    between atoms: _528  and  _531
REMARK  222  A    between atoms: _531  and  _532
REMARK  223  A    between atoms: _535  and  _537
REMARK  224  A    between atoms: _537  and  _538
REMARK  225  A    between atoms: _540  and  _542
REMARK  226  A    between atoms: _542  and  _543
REMARK  227  A    between atoms: _542  and  _545
REMARK  228  A    between atoms: _545  and  _546
REMARK  229  A    between atoms: _548  and  _550
REMARK  230  A    between atoms: _550  and  _551
REMARK  231  A    between atoms: _553  and  _555
REMARK  232  A    between atoms: _555  and  _556
REMARK  233  A    between atoms: _555  and  _558
REMARK  234  A    between atoms: _558  and  _559
REMARK  235  A    between atoms: _564  and  _566
REMARK  236  A    between atoms: _566  and  _567
REMARK  237  A    between atoms: _566  and  _569
REMARK  238  A    between atoms: _569  and  _570
REMARK  239  A    between atoms: _573  and  _575
REMARK  240  A    between atoms: _575  and  _576
REMARK  241  A    between atoms: _575  and  _578
REMARK  242  A    between atoms: _578  and  _579
REMARK  243  A    between atoms: _585  and  _587
REMARK  244  A    between atoms: _587  and  _588
REMARK  245  A    between atoms: _587  and  _590
REMARK  246  A    between atoms: _590  and  _591
REMARK  247  A    between atoms: _591  and  _592
REMARK  248  A    between atoms: _595  and  _597
REMARK  249  A    between atoms: _597  and  _598
REMARK  250  A    between atoms: _597  and  _600
REMARK  251  A    between atoms: _600  and  _601
REMARK  252  A    between atoms: _601  and  _602
REMARK  253  A    between atoms: _602  and  _603
REMARK  254  A    between atoms: _612  and  _614
REMARK  255  A    between atoms: _614  and  _615
REMARK  256  A    between atoms: _614  and  _617
REMARK  257  A    between atoms: _617  and  _618
REMARK  258  A    between atoms: _618  and  _619
REMARK  259  A    between atoms: _619  and  _620
REMARK  260  A    between atoms: _629  and  _631
REMARK  261  A    between atoms: _631  and  _632
REMARK  262  A    between atoms: _631  and  _634
REMARK  263  A    between atoms: _634  and  _635
REMARK  264  A    between atoms: _640  and  _641
REMARK  265  A    between atoms: _643  and  _645
REMARK  266  A    between atoms: _645  and  _646
REMARK  267  A    between atoms: _645  and  _648
REMARK  268  A    between atoms: _648  and  _649
REMARK  269  A    between atoms: _652  and  _654
REMARK  270  A    between atoms: _654  and  _655
REMARK  271  A    between atoms: _654  and  _657
REMARK  272  A    between atoms: _657  and  _658
REMARK  273  A    between atoms: _658  and  _659
REMARK  274  A    between atoms: _659  and  _660
REMARK  275  A    between atoms: _660  and  _661
REMARK  276  A    between atoms: _665  and  _667
REMARK  277  A    between atoms: _667  and  _668
REMARK  278  A    between atoms: _667  and  _670
REMARK  279  A    between atoms: _670  and  _671
REMARK  280  A    between atoms: _676  and  _678
REMARK  281  A    between atoms: _678  and  _679
REMARK  282  A    between atoms: _678  and  _681
REMARK  283  A    between atoms: _681  and  _682
REMARK  284  A    between atoms: _692  and  _694
REMARK  285  A    between atoms: _694  and  _695
REMARK  286  A    between atoms: _694  and  _697
REMARK  287  A    between atoms: _697  and  _698
REMARK  288  A    between atoms: _698  and  _699
REMARK  289  A    between atoms: _702  and  _704
REMARK  290  A    between atoms: _704  and  _705
REMARK  291  A    between atoms: _704  and  _707
REMARK  292  A    between atoms: _707  and  _708
REMARK  293  A    between atoms: _711  and  _713
REMARK  294  A    between atoms: _713  and  _714
REMARK  295  A    between atoms: _713  and  _716
REMARK  296  A    between atoms: _716  and  _717
REMARK  297  A    between atoms: _722  and  _724
REMARK  298  A    between atoms: _724  and  _725
REMARK  299  A    between atoms: _724  and  _727
REMARK  300  A    between atoms: _727  and  _728
REMARK  301  A    between atoms: _734  and  _736
REMARK  302  A    between atoms: _736  and  _737
REMARK  303  A    between atoms: _736  and  _739
REMARK  304  A    between atoms: _739  and  _740
REMARK  305  A    between atoms: _742  and  _744
REMARK  306  A    between atoms: _744  and  _745
REMARK  307  A    between atoms: _747  and  _749
REMARK  308  A    between atoms: _749  and  _750
REMARK  309  A    between atoms: _749  and  _752
REMARK  310  A    between atoms: _752  and  _753
REMARK  311  A    between atoms: _758  and  _759
REMARK  312  A    between atoms: _761  and  _763
REMARK  313  A    between atoms: _763  and  _764
REMARK  314  A    between atoms: _763  and  _766
REMARK  315  A    between atoms: _766  and  _767
REMARK  316  A    between atoms: _772  and  _773
REMARK  317  A    between atoms: _775  and  _777
REMARK  318  A    between atoms: _777  and  _778
REMARK  319  A    between atoms: _777  and  _780
REMARK  320  A    between atoms: _780  and  _781
REMARK  321  A    between atoms: _785  and  ZN_876
REMARK  322  A    between atoms: _786  and  _788
REMARK  323  A    between atoms: _788  and  _789
REMARK  324  A    between atoms: _788  and  _791
REMARK  325  A    between atoms: _791  and  _792
REMARK  326  A    between atoms: _792  and  _793
REMARK  327  A    between atoms: _796  and  _798
REMARK  328  A    between atoms: _798  and  _799
REMARK  329  A    between atoms: _798  and  _801
REMARK  330  A    between atoms: _801  and  _802
REMARK  331  A    between atoms: _802  and  _803
REMARK  332  A    between atoms: _803  and  _804
REMARK  333  A    between atoms: _813  and  _815
REMARK  334  A    between atoms: _815  and  _816
REMARK  335  A    between atoms: _815  and  _818
REMARK  336  A    between atoms: _818  and  _819
REMARK  337  A    between atoms: _824  and  _825
REMARK  338  A    between atoms: _827  and  _829
REMARK  339  A    between atoms: _829  and  _830
REMARK  340  A    between atoms: _829  and  _832
REMARK  341  A    between atoms: _832  and  _833
REMARK  342  A    between atoms: _838  and  _840
REMARK  343  A    between atoms: _840  and  _841
REMARK  344  A    between atoms: _840  and  _843
REMARK  345  A    between atoms: _843  and  _844
REMARK  346  A    between atoms: _844  and  _845
REMARK  347  A    between atoms: _845  and  _846
REMARK  348  A    between atoms: _846  and  _847
REMARK  349  A    between atoms: _851  and  _853
REMARK  350  A    between atoms: _853  and  _854
REMARK  351  A    between atoms: _853  and  _856
REMARK  352  A    between atoms: _856  and  _857
REMARK  353  A    between atoms: _862  and  _863
REMARK  354  A    between atoms: _865  and  _867
REMARK  355  A    between atoms: _867  and  _868
REMARK  356  A    between atoms: _871  and  _873
REMARK  357  A    between atoms: _873  and  _874
REMARK                            x       y       z     vdW  Elec       q    Type
REMARK                         _______ _______ _______ _____ _____    ______ ____
ROOT
ATOM      1  O   HOH     1      22.606  49.978  44.651  0.00  0.00    +0.000 OA
ENDROOT
TORSDOF 0
REMARK  Name = ../refined-set-2016/2xei/2xei_pocket.pdb
REMARK  357 active torsions:
REMARK  status: ('A' for Active; 'I' for Inactive)
REMARK    1  A    between atoms: _1  and  _3
REMARK    2  A    between atoms: _3  and  _4
REMARK    3  A    between atoms: _7  and  _9
REMARK    4  A    between atoms: _9  and  _10
REMARK    5  A    between atoms: _9  and  _12
REMARK    6  A    between atoms: _12  and  _13
REMARK    7  A    between atoms: _19  and  _21
REMARK    8  A    between atoms: _21  and  _22
REMARK    9  A    between atoms: _24  and  _26
REMARK   10  A    between atoms: _26  and  _27
REMARK   11  A    between atoms: _26  and  _29
REMARK   12  A    between atoms: _29  and  _30
REMARK   13  A    between atoms: _30  and  _31
REMARK   14  A    between atoms: _31  and  _32
REMARK   15  A    between atoms: _32  and  _33
REMARK   16  A    between atoms: _37  and  _39
REMARK   17  A    between atoms: _39  and  _40
REMARK   18  A    between atoms: _39  and  _42
REMARK   19  A    between atoms: _45  and  _47
REMARK   20  A    between atoms: _47  and  _48
REMARK   21  A    between atoms: _47  and  _50
REMARK   22  A    between atoms: _50  and  _51
REMARK   23  A    between atoms: _57  and  _59
REMARK   24  A    between atoms: _59  and  _60
REMARK   25  A    between atoms: _59  and  _62
REMARK   26  A    between atoms: _62  and  _63
REMARK   27  A    between atoms: _63  and  _64
REMARK   28  A    between atoms: _64  and  _65
REMARK   29  A    between atoms: _74  and  _76
REMARK   30  A    between atoms: _76  and  _77
REMARK   31  A    between atoms: _79  and  _81
REMARK   32  A    between atoms: _81  and  _82
REMARK   33  A    between atoms: _81  and  _84
REMARK   34  A    between atoms: _84  and  _85
REMARK   35  A    between atoms: _90  and  _91
REMARK   36  A    between atoms: _93  and  _95
REMARK   37  A    between atoms: _95  and  _96
REMARK   38  A    between atoms: _95  and  _98
REMARK   39  A    between atoms: _98  and  _99
REMARK   40  A    between atoms: _99  and  _100
REMARK   41  A    between atoms: _105  and  _107
REMARK   42  A    between atoms: _107  and  _108
REMARK   43  A    between atoms: _107  and  _110
REMARK   44  A    between atoms: _110  and  _111
REMARK   45  A    between atoms: _111  and  _112
REMARK   46  A    between atoms: _112  and  _113
REMARK   47  A    between atoms: _122  and  _124
REMARK   48  A    between atoms: _124  and  _125
REMARK   49  A    between atoms: _127  and  _129
REMARK   50  A    between atoms: _129  and  _130
REMARK   51  A    between atoms: _129  and  _132
REMARK   52  A    between atoms: _132  and  _133
REMARK   53  A    between atoms: _138  and  _140
REMARK   54  A    between atoms: _140  and  _141
REMARK   55  A    between atoms: _140  and  _143
REMARK   56  A    between atoms: _143  and  _144
REMARK   57  A    between atoms: _147  and  _149
REMARK   58  A    between atoms: _149  and  _150
REMARK   59  A    between atoms: _149  and  _152
REMARK   60  A    between atoms: _152  and  _153
REMARK   61  A    between atoms: _156  and  _158
REMARK   62  A    between atoms: _158  and  _159
REMARK   63  A    between atoms: _158  and  _161
REMARK   64  A    between atoms: _161  and  _162
REMARK   65  A    between atoms: _167  and  _169
REMARK   66  A    between atoms: _169  and  _170
REMARK   67  A    between atoms: _169  and  _172
REMARK   68  A    between atoms: _172  and  _173
REMARK   69  A    between atoms: _176  and  _178
REMARK   70  A    between atoms: _178  and  _179
REMARK   71  A    between atoms: _178  and  _181
REMARK   72  A    between atoms: _181  and  _182
REMARK   73  A    between atoms: _187  and  _189
REMARK   74  A    between atoms: _189  and  _190
REMARK   75  A    between atoms: _192  and  _194
REMARK   76  A    between atoms: _194  and  _195
REMARK   77  A    between atoms: _194  and  _197
REMARK   78  A    between atoms: _197  and  _198
REMARK   79  A    between atoms: _202  and  ZN_877
REMARK   80  A    between atoms: _203  and  _205
REMARK   81  A    between atoms: _205  and  _206
REMARK   82  A    between atoms: _205  and  _208
REMARK   83  A    between atoms: _208  and  _209
REMARK   84  A    between atoms: _212  and  _214
REMARK   85  A    between atoms: _214  and  _215
REMARK   86  A    between atoms: _214  and  _217
REMARK   87  A    between atoms: _217  and  _218
REMARK   88  A    between atoms: _228  and  _230
REMARK   89  A    between atoms: _230  and  _231
REMARK   90  A    between atoms: _230  and  _233
REMARK   91  A    between atoms: _233  and  _234
REMARK   92  A    between atoms: _237  and  _239
REMARK   93  A    between atoms: _239  and  _240
REMARK   94  A    between atoms: _239  and  _242
REMARK   95  A    between atoms: _242  and  _243
REMARK   96  A    between atoms: _243  and  _244
REMARK   97  A    between atoms: _243  and  _245
REMARK   98  A    between atoms: _244  and  ZN_877
REMARK   99  A    between atoms: _245  and  ZN_876
REMARK  100  A    between atoms: _247  and  _248
REMARK  101  A    between atoms: _253  and  _255
REMARK  102  A    between atoms: _255  and  _256
REMARK  103  A    between atoms: _259  and  _261
REMARK  104  A    between atoms: _261  and  _262
REMARK  105  A    between atoms: _261  and  _264
REMARK  106  A    between atoms: _264  and  _265
REMARK  107  A    between atoms: _265  and  _266
REMARK  108  A    between atoms: _269  and  _271
REMARK  109  A    between atoms: _271  and  _272
REMARK  110  A    between atoms: _271  and  _274
REMARK  111  A    between atoms: _274  and  _275
REMARK  112  A    between atoms: _275  and  _276
REMARK  113  A    between atoms: _276  and  _278
REMARK  114  A    between atoms: _278  and  ZN_876
REMARK  115  A    between atoms: _279  and  _281
REMARK  116  A    between atoms: _281  and  _282
REMARK  117  A    between atoms: _281  and  _284
REMARK  118  A    between atoms: _284  and  _285
REMARK  119  A    between atoms: _291  and  _293
REMARK  120  A    between atoms: _293  and  _294
REMARK  121  A    between atoms: _296  and  _298
REMARK  122  A    between atoms: _298  and  _299
REMARK  123  A    between atoms: _298  and  _301
REMARK  124  A    between atoms: _301  and  _302
REMARK  125  A    between atoms: _305  and  _307
REMARK  126  A    between atoms: _307  and  _308
REMARK  127  A    between atoms: _307  and  _310
REMARK  128  A    between atoms: _310  and  _311
REMARK  129  A    between atoms: _314  and  _316
REMARK  130  A    between atoms: _316  and  _317
REMARK  131  A    between atoms: _316  and  _319
REMARK  132  A    between atoms: _319  and  _320
REMARK  133  A    between atoms: _325  and  _327
REMARK  134  A    between atoms: _327  and  _328
REMARK  135  A    between atoms: _327  and  _330
REMARK  136  A    between atoms: _330  and  _331
REMARK  137  A    between atoms: _331  and  _333
REMARK  138  A    between atoms: _333  and  ZN_877
REMARK  139  A    between atoms: _334  and  _336
REMARK  140  A    between atoms: _336  and  _337
REMARK  141  A    between atoms: _336  and  _339
REMARK  142  A    between atoms: _339  and  _340
REMARK  143  A    between atoms: _342  and  _344
REMARK  144  A    between atoms: _344  and  _345
REMARK  145  A    between atoms: _344  and  _347
REMARK  146  A    between atoms: _347  and  _348
REMARK  147  A    between atoms: _350  and  _352
REMARK  148  A    between atoms: _352  and  _353
REMARK  149  A    between atoms: _352  and  _355
REMARK  150  A    between atoms: _355  and  _356
REMARK  151  A    between atoms: _359  and  _361
REMARK  152  A    between atoms: _361  and  _362
REMARK  153  A    between atoms: _361  and  _364
REMARK  154  A    between atoms: _364  and  _365
REMARK  155  A    between atoms: _365  and  _366
REMARK  156  A    between atoms: _369  and  _371
REMARK  157  A    between atoms: _371  and  _372
REMARK  158  A    between atoms: _371  and  _374
REMARK  159  A    between atoms: _374  and  _375
REMARK  160  A    between atoms: _380  and  _381
REMARK  161  A    between atoms: _383  and  _385
REMARK  162  A    between atoms: _385  and  _386
REMARK  163  A    between atoms: _385  and  _388
REMARK  164  A    between atoms: _388  and  _389
REMARK  165  A    between atoms: _392  and  _394
REMARK  166  A    between atoms: _394  and  _395
REMARK  167  A    between atoms: _394  and  _397
REMARK  168  A    between atoms: _397  and  _398
REMARK  169  A    between atoms: _401  and  _403
REMARK  170  A    between atoms: _403  and  _404
REMARK  171  A    between atoms: _403  and  _406
REMARK  172  A    between atoms: _406  and  _407
REMARK  173  A    between atoms: _407  and  _408
REMARK  174  A    between atoms: _408  and  _409
REMARK  175  A    between atoms: _418  and  _420
REMARK  176  A    between atoms: _420  and  _421
REMARK  177  A    between atoms: _420  and  _423
REMARK  178  A    between atoms: _426  and  _428
REMARK  179  A    between atoms: _428  and  _429
REMARK  180  A    between atoms: _428  and  _431
REMARK  181  A    between atoms: _431  and  _432
REMARK  182  A    between atoms: _435  and  _437
REMARK  183  A    between atoms: _437  and  _438
REMARK  184  A    between atoms: _437  and  _440
REMARK  185  A    between atoms: _440  and  _441
REMARK  186  A    between atoms: _451  and  _453
REMARK  187  A    between atoms: _453  and  _454
REMARK  188  A    between atoms: _453  and  _456
REMARK  189  A    between atoms: _456  and  _457
REMARK  190  A    between atoms: _457  and  _458
REMARK  191  A    between atoms: _458  and  _459
REMARK  192  A    between atoms: _459  and  _460
REMARK  193  A    between atoms: _464  and  _466
REMARK  194  A    between atoms: _466  and  _467
REMARK  195  A    between atoms: _466  and  _469
REMARK  196  A    between atoms: _469  and  _470
REMARK  197  A    between atoms: _473  and  _474
REMARK  198  A    between atoms: _479  and  _481
REMARK  199  A    between atoms: _481  and  _482
REMARK  200  A    between atoms: _481  and  _484
REMARK  201  A    between atoms: _484  and  _485
REMARK  202  A    between atoms: _485  and  _486
REMARK  203  A    between atoms: _486  and  _487
REMARK  204  A    between atoms: _496  and  _498
REMARK  205  A    between atoms: _498  and  _499
REMARK  206  A    between atoms: _498  and  _501
REMARK  207  A    between atoms: _501  and  _502
REMARK  208  A    between atoms: _505  and  _507
REMARK  209  A    between atoms: _507  and  _508
REMARK  210  A    between atoms: _507  and  _510
REMARK  211  A    between atoms: _510  and  _511
REMARK  212  A    between atoms: _513  and  _515
REMARK  213  A    between atoms: _515  and  _516
REMARK  214  A    between atoms: _515  and  _518
REMARK  215  A    between atoms: _518  and  _519
REMARK  216  A    between atoms: _519  and  _520
REMARK  217  A    between atoms: _520  and  _521
REMARK  218  A    between atoms: _521  and  _522
REMARK  219  A    between atoms: _526  and  _528
REMARK  220  A    between atoms: _528  and  _529
REMARK  221  A    between atoms: _528  and  _531
REMARK  222  A    between atoms: _531  and  _532
REMARK  223  A    between atoms: _535  and  _537
REMARK  224  A    between atoms: _537  and  _538
REMARK  225  A    between atoms: _540  and  _542
REMARK  226  A    between atoms: _542  and  _543
REMARK  227  A    between atoms: _542  and  _545
REMARK  228  A    between atoms: _545  and  _546
REMARK  229  A    between atoms: _548  and  _550
REMARK  230  A    between atoms: _550  and  _551
REMARK  231  A    between atoms: _553  and  _555
REMARK  232  A    between atoms: _555  and  _556
REMARK  233  A    between atoms: _555  and  _558
REMARK  234  A    between atoms: _558  and  _559
REMARK  235  A    between atoms: _564  and  _566
REMARK  236  A    between atoms: _566  and  _567
REMARK  237  A    between atoms: _566  and  _569
REMARK  238  A    between atoms: _569  and  _570
REMARK  239  A    between atoms: _573  and  _575
REMARK  240  A    between atoms: _575  and  _576
REMARK  241  A    between atoms: _575  and  _578
REMARK  242  A    between atoms: _578  and  _579
REMARK  243  A    between atoms: _585  and  _587
REMARK  244  A    between atoms: _587  and  _588
REMARK  245  A    between atoms: _587  and  _590
REMARK  246  A    between atoms: _590  and  _591
REMARK  247  A    between atoms: _591  and  _592
REMARK  248  A    between atoms: _595  and  _597
REMARK  249  A    between atoms: _597  and  _598
REMARK  250  A    between atoms: _597  and  _600
REMARK  251  A    between atoms: _600  and  _601
REMARK  252  A    between atoms: _601  and  _602
REMARK  253  A    between atoms: _602  and  _603
REMARK  254  A    between atoms: _612  and  _614
REMARK  255  A    between atoms: _614  and  _615
REMARK  256  A    between atoms: _614  and  _617
REMARK  257  A    between atoms: _617  and  _618
REMARK  258  A    between atoms: _618  and  _619
REMARK  259  A    between atoms: _619  and  _620
REMARK  260  A    between atoms: _629  and  _631
REMARK  261  A    between atoms: _631  and  _632
REMARK  262  A    between atoms: _631  and  _634
REMARK  263  A    between atoms: _634  and  _635
REMARK  264  A    between atoms: _640  and  _641
REMARK  265  A    between atoms: _643  and  _645
REMARK  266  A    between atoms: _645  and  _646
REMARK  267  A    between atoms: _645  and  _648
REMARK  268  A    between atoms: _648  and  _649
REMARK  269  A    between atoms: _652  and  _654
REMARK  270  A    between atoms: _654  and  _655
REMARK  271  A    between atoms: _654  and  _657
REMARK  272  A    between atoms: _657  and  _658
REMARK  273  A    between atoms: _658  and  _659
REMARK  274  A    between atoms: _659  and  _660
REMARK  275  A    between atoms: _660  and  _661
REMARK  276  A    between atoms: _665  and  _667
REMARK  277  A    between atoms: _667  and  _668
REMARK  278  A    between atoms: _667  and  _670
REMARK  279  A    between atoms: _670  and  _671
REMARK  280  A    between atoms: _676  and  _678
REMARK  281  A    between atoms: _678  and  _679
REMARK  282  A    between atoms: _678  and  _681
REMARK  283  A    between atoms: _681  and  _682
REMARK  284  A    between atoms: _692  and  _694
REMARK  285  A    between atoms: _694  and  _695
REMARK  286  A    between atoms: _694  and  _697
REMARK  287  A    between atoms: _697  and  _698
REMARK  288  A    between atoms: _698  and  _699
REMARK  289  A    between atoms: _702  and  _704
REMARK  290  A    between atoms: _704  and  _705
REMARK  291  A    between atoms: _704  and  _707
REMARK  292  A    between atoms: _707  and  _708
REMARK  293  A    between atoms: _711  and  _713
REMARK  294  A    between atoms: _713  and  _714
REMARK  295  A    between atoms: _713  and  _716
REMARK  296  A    between atoms: _716  and  _717
REMARK  297  A    between atoms: _722  and  _724
REMARK  298  A    between atoms: _724  and  _725
REMARK  299  A    between atoms: _724  and  _727
REMARK  300  A    between atoms: _727  and  _728
REMARK  301  A    between atoms: _734  and  _736
REMARK  302  A    between atoms: _736  and  _737
REMARK  303  A    between atoms: _736  and  _739
REMARK  304  A    between atoms: _739  and  _740
REMARK  305  A    between atoms: _742  and  _744
REMARK  306  A    between atoms: _744  and  _745
REMARK  307  A    between atoms: _747  and  _749
REMARK  308  A    between atoms: _749  and  _750
REMARK  309  A    between atoms: _749  and  _752
REMARK  310  A    between atoms: _752  and  _753
REMARK  311  A    between atoms: _758  and  _759
REMARK  312  A    between atoms: _761  and  _763
REMARK  313  A    between atoms: _763  and  _764
REMARK  314  A    between atoms: _763  and  _766
REMARK  315  A    between atoms: _766  and  _767
REMARK  316  A    between atoms: _772  and  _773
REMARK  317  A    between atoms: _775  and  _777
REMARK  318  A    between atoms: _777  and  _778
REMARK  319  A    between atoms: _777  and  _780
REMARK  320  A    between atoms: _780  and  _781
REMARK  321  A    between atoms: _785  and  ZN_876
REMARK  322  A    between atoms: _786  and  _788
REMARK  323  A    between atoms: _788  and  _789
REMARK  324  A    between atoms: _788  and  _791
REMARK  325  A    between atoms: _791  and  _792
REMARK  326  A    between atoms: _792  and  _793
REMARK  327  A    between atoms: _796  and  _798
REMARK  328  A    between atoms: _798  and  _799
REMARK  329  A    between atoms: _798  and  _801
REMARK  330  A    between atoms: _801  and  _802
REMARK  331  A    between atoms: _802  and  _803
REMARK  332  A    between atoms: _803  and  _804
REMARK  333  A    between atoms: _813  and  _815
REMARK  334  A    between atoms: _815  and  _816
REMARK  335  A    between atoms: _815  and  _818
REMARK  336  A    between atoms: _818  and  _819
REMARK  337  A    between atoms: _824  and  _825
REMARK  338  A    between atoms: _827  and  _829
REMARK  339  A    between atoms: _829  and  _830
REMARK  340  A    between atoms: _829  and  _832
REMARK  341  A    between atoms: _832  and  _833
REMARK  342  A    between atoms: _838  and  _840
REMARK  343  A    between atoms: _840  and  _841
REMARK  344  A    between atoms: _840  and  _843
REMARK  345  A    between atoms: _843  and  _844
REMARK  346  A    between atoms: _844  and  _845
REMARK  347  A    between atoms: _845  and  _846
REMARK  348  A    between atoms: _846  and  _847
REMARK  349  A    between atoms: _851  and  _853
REMARK  350  A    between atoms: _853  and  _854
REMARK  351  A    between atoms: _853  and  _856
REMARK  352  A    between atoms: _856  and  _857
REMARK  353  A    between atoms: _862  and  _863
REMARK  354  A    between atoms: _865  and  _867
REMARK  355  A    between atoms: _867  and  _868
REMARK  356  A    between atoms: _871  and  _873
REMARK  357  A    between atoms: _873  and  _874
REMARK                            x       y       z     vdW  Elec       q    Type
REMARK                         _______ _______ _______ _____ _____    ______ ____
ROOT
ATOM      1  O   HOH     1      20.620  53.032  47.396  0.00  0.00    +0.000 OA
ENDROOT
TORSDOF 0
REMARK  Name = ../refined-set-2016/2xei/2xei_pocket.pdb
REMARK  357 active torsions:
REMARK  status: ('A' for Active; 'I' for Inactive)
REMARK    1  A    between atoms: _1  and  _3
REMARK    2  A    between atoms: _3  and  _4
REMARK    3  A    between atoms: _7  and  _9
REMARK    4  A    between atoms: _9  and  _10
REMARK    5  A    between atoms: _9  and  _12
REMARK    6  A    between atoms: _12  and  _13
REMARK    7  A    between atoms: _19  and  _21
REMARK    8  A    between atoms: _21  and  _22
REMARK    9  A    between atoms: _24  and  _26
REMARK   10  A    between atoms: _26  and  _27
REMARK   11  A    between atoms: _26  and  _29
REMARK   12  A    between atoms: _29  and  _30
REMARK   13  A    between atoms: _30  and  _31
REMARK   14  A    between atoms: _31  and  _32
REMARK   15  A    between atoms: _32  and  _33
REMARK   16  A    between atoms: _37  and  _39
REMARK   17  A    between atoms: _39  and  _40
REMARK   18  A    between atoms: _39  and  _42
REMARK   19  A    between atoms: _45  and  _47
REMARK   20  A    between atoms: _47  and  _48
REMARK   21  A    between atoms: _47  and  _50
REMARK   22  A    between atoms: _50  and  _51
REMARK   23  A    between atoms: _57  and  _59
REMARK   24  A    between atoms: _59  and  _60
REMARK   25  A    between atoms: _59  and  _62
REMARK   26  A    between atoms: _62  and  _63
REMARK   27  A    between atoms: _63  and  _64
REMARK   28  A    between atoms: _64  and  _65
REMARK   29  A    between atoms: _74  and  _76
REMARK   30  A    between atoms: _76  and  _77
REMARK   31  A    between atoms: _79  and  _81
REMARK   32  A    between atoms: _81  and  _82
REMARK   33  A    between atoms: _81  and  _84
REMARK   34  A    between atoms: _84  and  _85
REMARK   35  A    between atoms: _90  and  _91
REMARK   36  A    between atoms: _93  and  _95
REMARK   37  A    between atoms: _95  and  _96
REMARK   38  A    between atoms: _95  and  _98
REMARK   39  A    between atoms: _98  and  _99
REMARK   40  A    between atoms: _99  and  _100
REMARK   41  A    between atoms: _105  and  _107
REMARK   42  A    between atoms: _107  and  _108
REMARK   43  A    between atoms: _107  and  _110
REMARK   44  A    between atoms: _110  and  _111
REMARK   45  A    between atoms: _111  and  _112
REMARK   46  A    between atoms: _112  and  _113
REMARK   47  A    between atoms: _122  and  _124
REMARK   48  A    between atoms: _124  and  _125
REMARK   49  A    between atoms: _127  and  _129
REMARK   50  A    between atoms: _129  and  _130
REMARK   51  A    between atoms: _129  and  _132
REMARK   52  A    between atoms: _132  and  _133
REMARK   53  A    between atoms: _138  and  _140
REMARK   54  A    between atoms: _140  and  _141
REMARK   55  A    between atoms: _140  and  _143
REMARK   56  A    between atoms: _143  and  _144
REMARK   57  A    between atoms: _147  and  _149
REMARK   58  A    between atoms: _149  and  _150
REMARK   59  A    between atoms: _149  and  _152
REMARK   60  A    between atoms: _152  and  _153
REMARK   61  A    between atoms: _156  and  _158
REMARK   62  A    between atoms: _158  and  _159
REMARK   63  A    between atoms: _158  and  _161
REMARK   64  A    between atoms: _161  and  _162
REMARK   65  A    between atoms: _167  and  _169
REMARK   66  A    between atoms: _169  and  _170
REMARK   67  A    between atoms: _169  and  _172
REMARK   68  A    between atoms: _172  and  _173
REMARK   69  A    between atoms: _176  and  _178
REMARK   70  A    between atoms: _178  and  _179
REMARK   71  A    between atoms: _178  and  _181
REMARK   72  A    between atoms: _181  and  _182
REMARK   73  A    between atoms: _187  and  _189
REMARK   74  A    between atoms: _189  and  _190
REMARK   75  A    between atoms: _192  and  _194
REMARK   76  A    between atoms: _194  and  _195
REMARK   77  A    between atoms: _194  and  _197
REMARK   78  A    between atoms: _197  and  _198
REMARK   79  A    between atoms: _202  and  ZN_877
REMARK   80  A    between atoms: _203  and  _205
REMARK   81  A    between atoms: _205  and  _206
REMARK   82  A    between atoms: _205  and  _208
REMARK   83  A    between atoms: _208  and  _209
REMARK   84  A    between atoms: _212  and  _214
REMARK   85  A    between atoms: _214  and  _215
REMARK   86  A    between atoms: _214  and  _217
REMARK   87  A    between atoms: _217  and  _218
REMARK   88  A    between atoms: _228  and  _230
REMARK   89  A    between atoms: _230  and  _231
REMARK   90  A    between atoms: _230  and  _233
REMARK   91  A    between atoms: _233  and  _234
REMARK   92  A    between atoms: _237  and  _239
REMARK   93  A    between atoms: _239  and  _240
REMARK   94  A    between atoms: _239  and  _242
REMARK   95  A    between atoms: _242  and  _243
REMARK   96  A    between atoms: _243  and  _244
REMARK   97  A    between atoms: _243  and  _245
REMARK   98  A    between atoms: _244  and  ZN_877
REMARK   99  A    between atoms: _245  and  ZN_876
REMARK  100  A    between atoms: _247  and  _248
REMARK  101  A    between atoms: _253  and  _255
REMARK  102  A    between atoms: _255  and  _256
REMARK  103  A    between atoms: _259  and  _261
REMARK  104  A    between atoms: _261  and  _262
REMARK  105  A    between atoms: _261  and  _264
REMARK  106  A    between atoms: _264  and  _265
REMARK  107  A    between atoms: _265  and  _266
REMARK  108  A    between atoms: _269  and  _271
REMARK  109  A    between atoms: _271  and  _272
REMARK  110  A    between atoms: _271  and  _274
REMARK  111  A    between atoms: _274  and  _275
REMARK  112  A    between atoms: _275  and  _276
REMARK  113  A    between atoms: _276  and  _278
REMARK  114  A    between atoms: _278  and  ZN_876
REMARK  115  A    between atoms: _279  and  _281
REMARK  116  A    between atoms: _281  and  _282
REMARK  117  A    between atoms: _281  and  _284
REMARK  118  A    between atoms: _284  and  _285
REMARK  119  A    between atoms: _291  and  _293
REMARK  120  A    between atoms: _293  and  _294
REMARK  121  A    between atoms: _296  and  _298
REMARK  122  A    between atoms: _298  and  _299
REMARK  123  A    between atoms: _298  and  _301
REMARK  124  A    between atoms: _301  and  _302
REMARK  125  A    between atoms: _305  and  _307
REMARK  126  A    between atoms: _307  and  _308
REMARK  127  A    between atoms: _307  and  _310
REMARK  128  A    between atoms: _310  and  _311
REMARK  129  A    between atoms: _314  and  _316
REMARK  130  A    between atoms: _316  and  _317
REMARK  131  A    between atoms: _316  and  _319
REMARK  132  A    between atoms: _319  and  _320
REMARK  133  A    between atoms: _325  and  _327
REMARK  134  A    between atoms: _327  and  _328
REMARK  135  A    between atoms: _327  and  _330
REMARK  136  A    between atoms: _330  and  _331
REMARK  137  A    between atoms: _331  and  _333
REMARK  138  A    between atoms: _333  and  ZN_877
REMARK  139  A    between atoms: _334  and  _336
REMARK  140  A    between atoms: _336  and  _337
REMARK  141  A    between atoms: _336  and  _339
REMARK  142  A    between atoms: _339  and  _340
REMARK  143  A    between atoms: _342  and  _344
REMARK  144  A    between atoms: _344  and  _345
REMARK  145  A    between atoms: _344  and  _347
REMARK  146  A    between atoms: _347  and  _348
REMARK  147  A    between atoms: _350  and  _352
REMARK  148  A    between atoms: _352  and  _353
REMARK  149  A    between atoms: _352  and  _355
REMARK  150  A    between atoms: _355  and  _356
REMARK  151  A    between atoms: _359  and  _361
REMARK  152  A    between atoms: _361  and  _362
REMARK  153  A    between atoms: _361  and  _364
REMARK  154  A    between atoms: _364  and  _365
REMARK  155  A    between atoms: _365  and  _366
REMARK  156  A    between atoms: _369  and  _371
REMARK  157  A    between atoms: _371  and  _372
REMARK  158  A    between atoms: _371  and  _374
REMARK  159  A    between atoms: _374  and  _375
REMARK  160  A    between atoms: _380  and  _381
REMARK  161  A    between atoms: _383  and  _385
REMARK  162  A    between atoms: _385  and  _386
REMARK  163  A    between atoms: _385  and  _388
REMARK  164  A    between atoms: _388  and  _389
REMARK  165  A    between atoms: _392  and  _394
REMARK  166  A    between atoms: _394  and  _395
REMARK  167  A    between atoms: _394  and  _397
REMARK  168  A    between atoms: _397  and  _398
REMARK  169  A    between atoms: _401  and  _403
REMARK  170  A    between atoms: _403  and  _404
REMARK  171  A    between atoms: _403  and  _406
REMARK  172  A    between atoms: _406  and  _407
REMARK  173  A    between atoms: _407  and  _408
REMARK  174  A    between atoms: _408  and  _409
REMARK  175  A    between atoms: _418  and  _420
REMARK  176  A    between atoms: _420  and  _421
REMARK  177  A    between atoms: _420  and  _423
REMARK  178  A    between atoms: _426  and  _428
REMARK  179  A    between atoms: _428  and  _429
REMARK  180  A    between atoms: _428  and  _431
REMARK  181  A    between atoms: _431  and  _432
REMARK  182  A    between atoms: _435  and  _437
REMARK  183  A    between atoms: _437  and  _438
REMARK  184  A    between atoms: _437  and  _440
REMARK  185  A    between atoms: _440  and  _441
REMARK  186  A    between atoms: _451  and  _453
REMARK  187  A    between atoms: _453  and  _454
REMARK  188  A    between atoms: _453  and  _456
REMARK  189  A    between atoms: _456  and  _457
REMARK  190  A    between atoms: _457  and  _458
REMARK  191  A    between atoms: _458  and  _459
REMARK  192  A    between atoms: _459  and  _460
REMARK  193  A    between atoms: _464  and  _466
REMARK  194  A    between atoms: _466  and  _467
REMARK  195  A    between atoms: _466  and  _469
REMARK  196  A    between atoms: _469  and  _470
REMARK  197  A    between atoms: _473  and  _474
REMARK  198  A    between atoms: _479  and  _481
REMARK  199  A    between atoms: _481  and  _482
REMARK  200  A    between atoms: _481  and  _484
REMARK  201  A    between atoms: _484  and  _485
REMARK  202  A    between atoms: _485  and  _486
REMARK  203  A    between atoms: _486  and  _487
REMARK  204  A    between atoms: _496  and  _498
REMARK  205  A    between atoms: _498  and  _499
REMARK  206  A    between atoms: _498  and  _501
REMARK  207  A    between atoms: _501  and  _502
REMARK  208  A    between atoms: _505  and  _507
REMARK  209  A    between atoms: _507  and  _508
REMARK  210  A    between atoms: _507  and  _510
REMARK  211  A    between atoms: _510  and  _511
REMARK  212  A    between atoms: _513  and  _515
REMARK  213  A    between atoms: _515  and  _516
REMARK  214  A    between atoms: _515  and  _518
REMARK  215  A    between atoms: _518  and  _519
REMARK  216  A    between atoms: _519  and  _520
REMARK  217  A    between atoms: _520  and  _521
REMARK  218  A    between atoms: _521  and  _522
REMARK  219  A    between atoms: _526  and  _528
REMARK  220  A    between atoms: _528  and  _529
REMARK  221  A    between atoms: _528  and  _531
REMARK  222  A    between atoms: _531  and  _532
REMARK  223  A    between atoms: _535  and  _537
REMARK  224  A    between atoms: _537  and  _538
REMARK  225  A    between atoms: _540  and  _542
REMARK  226  A    between atoms: _542  and  _543
REMARK  227  A    between atoms: _542  and  _545
REMARK  228  A    between atoms: _545  and  _546
REMARK  229  A    between atoms: _548  and  _550
REMARK  230  A    between atoms: _550  and  _551
REMARK  231  A    between atoms: _553  and  _555
REMARK  232  A    between atoms: _555  and  _556
REMARK  233  A    between atoms: _555  and  _558
REMARK  234  A    between atoms: _558  and  _559
REMARK  235  A    between atoms: _564  and  _566
REMARK  236  A    between atoms: _566  and  _567
REMARK  237  A    between atoms: _566  and  _569
REMARK  238  A    between atoms: _569  and  _570
REMARK  239  A    between atoms: _573  and  _575
REMARK  240  A    between atoms: _575  and  _576
REMARK  241  A    between atoms: _575  and  _578
REMARK  242  A    between atoms: _578  and  _579
REMARK  243  A    between atoms: _585  and  _587
REMARK  244  A    between atoms: _587  and  _588
REMARK  245  A    between atoms: _587  and  _590
REMARK  246  A    between atoms: _590  and  _591
REMARK  247  A    between atoms: _591  and  _592
REMARK  248  A    between atoms: _595  and  _597
REMARK  249  A    between atoms: _597  and  _598
REMARK  250  A    between atoms: _597  and  _600
REMARK  251  A    between atoms: _600  and  _601
REMARK  252  A    between atoms: _601  and  _602
REMARK  253  A    between atoms: _602  and  _603
REMARK  254  A    between atoms: _612  and  _614
REMARK  255  A    between atoms: _614  and  _615
REMARK  256  A    between atoms: _614  and  _617
REMARK  257  A    between atoms: _617  and  _618
REMARK  258  A    between atoms: _618  and  _619
REMARK  259  A    between atoms: _619  and  _620
REMARK  260  A    between atoms: _629  and  _631
REMARK  261  A    between atoms: _631  and  _632
REMARK  262  A    between atoms: _631  and  _634
REMARK  263  A    between atoms: _634  and  _635
REMARK  264  A    between atoms: _640  and  _641
REMARK  265  A    between atoms: _643  and  _645
REMARK  266  A    between atoms: _645  and  _646
REMARK  267  A    between atoms: _645  and  _648
REMARK  268  A    between atoms: _648  and  _649
REMARK  269  A    between atoms: _652  and  _654
REMARK  270  A    between atoms: _654  and  _655
REMARK  271  A    between atoms: _654  and  _657
REMARK  272  A    between atoms: _657  and  _658
REMARK  273  A    between atoms: _658  and  _659
REMARK  274  A    between atoms: _659  and  _660
REMARK  275  A    between atoms: _660  and  _661
REMARK  276  A    between atoms: _665  and  _667
REMARK  277  A    between atoms: _667  and  _668
REMARK  278  A    between atoms: _667  and  _670
REMARK  279  A    between atoms: _670  and  _671
REMARK  280  A    between atoms: _676  and  _678
REMARK  281  A    between atoms: _678  and  _679
REMARK  282  A    between atoms: _678  and  _681
REMARK  283  A    between atoms: _681  and  _682
REMARK  284  A    between atoms: _692  and  _694
REMARK  285  A    between atoms: _694  and  _695
REMARK  286  A    between atoms: _694  and  _697
REMARK  287  A    between atoms: _697  and  _698
REMARK  288  A    between atoms: _698  and  _699
REMARK  289  A    between atoms: _702  and  _704
REMARK  290  A    between atoms: _704  and  _705
REMARK  291  A    between atoms: _704  and  _707
REMARK  292  A    between atoms: _707  and  _708
REMARK  293  A    between atoms: _711  and  _713
REMARK  294  A    between atoms: _713  and  _714
REMARK  295  A    between atoms: _713  and  _716
REMARK  296  A    between atoms: _716  and  _717
REMARK  297  A    between atoms: _722  and  _724
REMARK  298  A    between atoms: _724  and  _725
REMARK  299  A    between atoms: _724  and  _727
REMARK  300  A    between atoms: _727  and  _728
REMARK  301  A    between atoms: _734  and  _736
REMARK  302  A    between atoms: _736  and  _737
REMARK  303  A    between atoms: _736  and  _739
REMARK  304  A    between atoms: _739  and  _740
REMARK  305  A    between atoms: _742  and  _744
REMARK  306  A    between atoms: _744  and  _745
REMARK  307  A    between atoms: _747  and  _749
REMARK  308  A    between atoms: _749  and  _750
REMARK  309  A    between atoms: _749  and  _752
REMARK  310  A    between atoms: _752  and  _753
REMARK  311  A    between atoms: _758  and  _759
REMARK  312  A    between atoms: _761  and  _763
REMARK  313  A    between atoms: _763  and  _764
REMARK  314  A    between atoms: _763  and  _766
REMARK  315  A    between atoms: _766  and  _767
REMARK  316  A    between atoms: _772  and  _773
REMARK  317  A    between atoms: _775  and  _777
REMARK  318  A    between atoms: _777  and  _778
REMARK  319  A    between atoms: _777  and  _780
REMARK  320  A    between atoms: _780  and  _781
REMARK  321  A    between atoms: _785  and  ZN_876
REMARK  322  A    between atoms: _786  and  _788
REMARK  323  A    between atoms: _788  and  _789
REMARK  324  A    between atoms: _788  and  _791
REMARK  325  A    between atoms: _791  and  _792
REMARK  326  A    between atoms: _792  and  _793
REMARK  327  A    between atoms: _796  and  _798
REMARK  328  A    between atoms: _798  and  _799
REMARK  329  A    between atoms: _798  and  _801
REMARK  330  A    between atoms: _801  and  _802
REMARK  331  A    between atoms: _802  and  _803
REMARK  332  A    between atoms: _803  and  _804
REMARK  333  A    between atoms: _813  and  _815
REMARK  334  A    between atoms: _815  and  _816
REMARK  335  A    between atoms: _815  and  _818
REMARK  336  A    between atoms: _818  and  _819
REMARK  337  A    between atoms: _824  and  _825
REMARK  338  A    between atoms: _827  and  _829
REMARK  339  A    between atoms: _829  and  _830
REMARK  340  A    between atoms: _829  and  _832
REMARK  341  A    between atoms: _832  and  _833
REMARK  342  A    between atoms: _838  and  _840
REMARK  343  A    between atoms: _840  and  _841
REMARK  344  A    between atoms: _840  and  _843
REMARK  345  A    between atoms: _843  and  _844
REMARK  346  A    between atoms: _844  and  _845
REMARK  347  A    between atoms: _845  and  _846
REMARK  348  A    between atoms: _846  and  _847
REMARK  349  A    between atoms: _851  and  _853
REMARK  350  A    between atoms: _853  and  _854
REMARK  351  A    between atoms: _853  and  _856
REMARK  352  A    between atoms: _856  and  _857
REMARK  353  A    between atoms: _862  and  _863
REMARK  354  A    between atoms: _865  and  _867
REMARK  355  A    between atoms: _867  and  _868
REMARK  356  A    between atoms: _871  and  _873
REMARK  357  A    between atoms: _873  and  _874
REMARK                            x       y       z     vdW  Elec       q    Type
REMARK                         _______ _______ _______ _____ _____    ______ ____
ROOT
ATOM      1  O   HOH     1      30.965  52.417  53.013  0.00  0.00    +0.000 OA
ENDROOT
TORSDOF 0
REMARK  Name = ../refined-set-2016/2xei/2xei_pocket.pdb
REMARK  357 active torsions:
REMARK  status: ('A' for Active; 'I' for Inactive)
REMARK    1  A    between atoms: _1  and  _3
REMARK    2  A    between atoms: _3  and  _4
REMARK    3  A    between atoms: _7  and  _9
REMARK    4  A    between atoms: _9  and  _10
REMARK    5  A    between atoms: _9  and  _12
REMARK    6  A    between atoms: _12  and  _13
REMARK    7  A    between atoms: _19  and  _21
REMARK    8  A    between atoms: _21  and  _22
REMARK    9  A    between atoms: _24  and  _26
REMARK   10  A    between atoms: _26  and  _27
REMARK   11  A    between atoms: _26  and  _29
REMARK   12  A    between atoms: _29  and  _30
REMARK   13  A    between atoms: _30  and  _31
REMARK   14  A    between atoms: _31  and  _32
REMARK   15  A    between atoms: _32  and  _33
REMARK   16  A    between atoms: _37  and  _39
REMARK   17  A    between atoms: _39  and  _40
REMARK   18  A    between atoms: _39  and  _42
REMARK   19  A    between atoms: _45  and  _47
REMARK   20  A    between atoms: _47  and  _48
REMARK   21  A    between atoms: _47  and  _50
REMARK   22  A    between atoms: _50  and  _51
REMARK   23  A    between atoms: _57  and  _59
REMARK   24  A    between atoms: _59  and  _60
REMARK   25  A    between atoms: _59  and  _62
REMARK   26  A    between atoms: _62  and  _63
REMARK   27  A    between atoms: _63  and  _64
REMARK   28  A    between atoms: _64  and  _65
REMARK   29  A    between atoms: _74  and  _76
REMARK   30  A    between atoms: _76  and  _77
REMARK   31  A    between atoms: _79  and  _81
REMARK   32  A    between atoms: _81  and  _82
REMARK   33  A    between atoms: _81  and  _84
REMARK   34  A    between atoms: _84  and  _85
REMARK   35  A    between atoms: _90  and  _91
REMARK   36  A    between atoms: _93  and  _95
REMARK   37  A    between atoms: _95  and  _96
REMARK   38  A    between atoms: _95  and  _98
REMARK   39  A    between atoms: _98  and  _99
REMARK   40  A    between atoms: _99  and  _100
REMARK   41  A    between atoms: _105  and  _107
REMARK   42  A    between atoms: _107  and  _108
REMARK   43  A    between atoms: _107  and  _110
REMARK   44  A    between atoms: _110  and  _111
REMARK   45  A    between atoms: _111  and  _112
REMARK   46  A    between atoms: _112  and  _113
REMARK   47  A    between atoms: _122  and  _124
REMARK   48  A    between atoms: _124  and  _125
REMARK   49  A    between atoms: _127  and  _129
REMARK   50  A    between atoms: _129  and  _130
REMARK   51  A    between atoms: _129  and  _132
REMARK   52  A    between atoms: _132  and  _133
REMARK   53  A    between atoms: _138  and  _140
REMARK   54  A    between atoms: _140  and  _141
REMARK   55  A    between atoms: _140  and  _143
REMARK   56  A    between atoms: _143  and  _144
REMARK   57  A    between atoms: _147  and  _149
REMARK   58  A    between atoms: _149  and  _150
REMARK   59  A    between atoms: _149  and  _152
REMARK   60  A    between atoms: _152  and  _153
REMARK   61  A    between atoms: _156  and  _158
REMARK   62  A    between atoms: _158  and  _159
REMARK   63  A    between atoms: _158  and  _161
REMARK   64  A    between atoms: _161  and  _162
REMARK   65  A    between atoms: _167  and  _169
REMARK   66  A    between atoms: _169  and  _170
REMARK   67  A    between atoms: _169  and  _172
REMARK   68  A    between atoms: _172  and  _173
REMARK   69  A    between atoms: _176  and  _178
REMARK   70  A    between atoms: _178  and  _179
REMARK   71  A    between atoms: _178  and  _181
REMARK   72  A    between atoms: _181  and  _182
REMARK   73  A    between atoms: _187  and  _189
REMARK   74  A    between atoms: _189  and  _190
REMARK   75  A    between atoms: _192  and  _194
REMARK   76  A    between atoms: _194  and  _195
REMARK   77  A    between atoms: _194  and  _197
REMARK   78  A    between atoms: _197  and  _198
REMARK   79  A    between atoms: _202  and  ZN_877
REMARK   80  A    between atoms: _203  and  _205
REMARK   81  A    between atoms: _205  and  _206
REMARK   82  A    between atoms: _205  and  _208
REMARK   83  A    between atoms: _208  and  _209
REMARK   84  A    between atoms: _212  and  _214
REMARK   85  A    between atoms: _214  and  _215
REMARK   86  A    between atoms: _214  and  _217
REMARK   87  A    between atoms: _217  and  _218
REMARK   88  A    between atoms: _228  and  _230
REMARK   89  A    between atoms: _230  and  _231
REMARK   90  A    between atoms: _230  and  _233
REMARK   91  A    between atoms: _233  and  _234
REMARK   92  A    between atoms: _237  and  _239
REMARK   93  A    between atoms: _239  and  _240
REMARK   94  A    between atoms: _239  and  _242
REMARK   95  A    between atoms: _242  and  _243
REMARK   96  A    between atoms: _243  and  _244
REMARK   97  A    between atoms: _243  and  _245
REMARK   98  A    between atoms: _244  and  ZN_877
REMARK   99  A    between atoms: _245  and  ZN_876
REMARK  100  A    between atoms: _247  and  _248
REMARK  101  A    between atoms: _253  and  _255
REMARK  102  A    between atoms: _255  and  _256
REMARK  103  A    between atoms: _259  and  _261
REMARK  104  A    between atoms: _261  and  _262
REMARK  105  A    between atoms: _261  and  _264
REMARK  106  A    between atoms: _264  and  _265
REMARK  107  A    between atoms: _265  and  _266
REMARK  108  A    between atoms: _269  and  _271
REMARK  109  A    between atoms: _271  and  _272
REMARK  110  A    between atoms: _271  and  _274
REMARK  111  A    between atoms: _274  and  _275
REMARK  112  A    between atoms: _275  and  _276
REMARK  113  A    between atoms: _276  and  _278
REMARK  114  A    between atoms: _278  and  ZN_876
REMARK  115  A    between atoms: _279  and  _281
REMARK  116  A    between atoms: _281  and  _282
REMARK  117  A    between atoms: _281  and  _284
REMARK  118  A    between atoms: _284  and  _285
REMARK  119  A    between atoms: _291  and  _293
REMARK  120  A    between atoms: _293  and  _294
REMARK  121  A    between atoms: _296  and  _298
REMARK  122  A    between atoms: _298  and  _299
REMARK  123  A    between atoms: _298  and  _301
REMARK  124  A    between atoms: _301  and  _302
REMARK  125  A    between atoms: _305  and  _307
REMARK  126  A    between atoms: _307  and  _308
REMARK  127  A    between atoms: _307  and  _310
REMARK  128  A    between atoms: _310  and  _311
REMARK  129  A    between atoms: _314  and  _316
REMARK  130  A    between atoms: _316  and  _317
REMARK  131  A    between atoms: _316  and  _319
REMARK  132  A    between atoms: _319  and  _320
REMARK  133  A    between atoms: _325  and  _327
REMARK  134  A    between atoms: _327  and  _328
REMARK  135  A    between atoms: _327  and  _330
REMARK  136  A    between atoms: _330  and  _331
REMARK  137  A    between atoms: _331  and  _333
REMARK  138  A    between atoms: _333  and  ZN_877
REMARK  139  A    between atoms: _334  and  _336
REMARK  140  A    between atoms: _336  and  _337
REMARK  141  A    between atoms: _336  and  _339
REMARK  142  A    between atoms: _339  and  _340
REMARK  143  A    between atoms: _342  and  _344
REMARK  144  A    between atoms: _344  and  _345
REMARK  145  A    between atoms: _344  and  _347
REMARK  146  A    between atoms: _347  and  _348
REMARK  147  A    between atoms: _350  and  _352
REMARK  148  A    between atoms: _352  and  _353
REMARK  149  A    between atoms: _352  and  _355
REMARK  150  A    between atoms: _355  and  _356
REMARK  151  A    between atoms: _359  and  _361
REMARK  152  A    between atoms: _361  and  _362
REMARK  153  A    between atoms: _361  and  _364
REMARK  154  A    between atoms: _364  and  _365
REMARK  155  A    between atoms: _365  and  _366
REMARK  156  A    between atoms: _369  and  _371
REMARK  157  A    between atoms: _371  and  _372
REMARK  158  A    between atoms: _371  and  _374
REMARK  159  A    between atoms: _374  and  _375
REMARK  160  A    between atoms: _380  and  _381
REMARK  161  A    between atoms: _383  and  _385
REMARK  162  A    between atoms: _385  and  _386
REMARK  163  A    between atoms: _385  and  _388
REMARK  164  A    between atoms: _388  and  _389
REMARK  165  A    between atoms: _392  and  _394
REMARK  166  A    between atoms: _394  and  _395
REMARK  167  A    between atoms: _394  and  _397
REMARK  168  A    between atoms: _397  and  _398
REMARK  169  A    between atoms: _401  and  _403
REMARK  170  A    between atoms: _403  and  _404
REMARK  171  A    between atoms: _403  and  _406
REMARK  172  A    between atoms: _406  and  _407
REMARK  173  A    between atoms: _407  and  _408
REMARK  174  A    between atoms: _408  and  _409
REMARK  175  A    between atoms: _418  and  _420
REMARK  176  A    between atoms: _420  and  _421
REMARK  177  A    between atoms: _420  and  _423
REMARK  178  A    between atoms: _426  and  _428
REMARK  179  A    between atoms: _428  and  _429
REMARK  180  A    between atoms: _428  and  _431
REMARK  181  A    between atoms: _431  and  _432
REMARK  182  A    between atoms: _435  and  _437
REMARK  183  A    between atoms: _437  and  _438
REMARK  184  A    between atoms: _437  and  _440
REMARK  185  A    between atoms: _440  and  _441
REMARK  186  A    between atoms: _451  and  _453
REMARK  187  A    between atoms: _453  and  _454
REMARK  188  A    between atoms: _453  and  _456
REMARK  189  A    between atoms: _456  and  _457
REMARK  190  A    between atoms: _457  and  _458
REMARK  191  A    between atoms: _458  and  _459
REMARK  192  A    between atoms: _459  and  _460
REMARK  193  A    between atoms: _464  and  _466
REMARK  194  A    between atoms: _466  and  _467
REMARK  195  A    between atoms: _466  and  _469
REMARK  196  A    between atoms: _469  and  _470
REMARK  197  A    between atoms: _473  and  _474
REMARK  198  A    between atoms: _479  and  _481
REMARK  199  A    between atoms: _481  and  _482
REMARK  200  A    between atoms: _481  and  _484
REMARK  201  A    between atoms: _484  and  _485
REMARK  202  A    between atoms: _485  and  _486
REMARK  203  A    between atoms: _486  and  _487
REMARK  204  A    between atoms: _496  and  _498
REMARK  205  A    between atoms: _498  and  _499
REMARK  206  A    between atoms: _498  and  _501
REMARK  207  A    between atoms: _501  and  _502
REMARK  208  A    between atoms: _505  and  _507
REMARK  209  A    between atoms: _507  and  _508
REMARK  210  A    between atoms: _507  and  _510
REMARK  211  A    between atoms: _510  and  _511
REMARK  212  A    between atoms: _513  and  _515
REMARK  213  A    between atoms: _515  and  _516
REMARK  214  A    between atoms: _515  and  _518
REMARK  215  A    between atoms: _518  and  _519
REMARK  216  A    between atoms: _519  and  _520
REMARK  217  A    between atoms: _520  and  _521
REMARK  218  A    between atoms: _521  and  _522
REMARK  219  A    between atoms: _526  and  _528
REMARK  220  A    between atoms: _528  and  _529
REMARK  221  A    between atoms: _528  and  _531
REMARK  222  A    between atoms: _531  and  _532
REMARK  223  A    between atoms: _535  and  _537
REMARK  224  A    between atoms: _537  and  _538
REMARK  225  A    between atoms: _540  and  _542
REMARK  226  A    between atoms: _542  and  _543
REMARK  227  A    between atoms: _542  and  _545
REMARK  228  A    between atoms: _545  and  _546
REMARK  229  A    between atoms: _548  and  _550
REMARK  230  A    between atoms: _550  and  _551
REMARK  231  A    between atoms: _553  and  _555
REMARK  232  A    between atoms: _555  and  _556
REMARK  233  A    between atoms: _555  and  _558
REMARK  234  A    between atoms: _558  and  _559
REMARK  235  A    between atoms: _564  and  _566
REMARK  236  A    between atoms: _566  and  _567
REMARK  237  A    between atoms: _566  and  _569
REMARK  238  A    between atoms: _569  and  _570
REMARK  239  A    between atoms: _573  and  _575
REMARK  240  A    between atoms: _575  and  _576
REMARK  241  A    between atoms: _575  and  _578
REMARK  242  A    between atoms: _578  and  _579
REMARK  243  A    between atoms: _585  and  _587
REMARK  244  A    between atoms: _587  and  _588
REMARK  245  A    between atoms: _587  and  _590
REMARK  246  A    between atoms: _590  and  _591
REMARK  247  A    between atoms: _591  and  _592
REMARK  248  A    between atoms: _595  and  _597
REMARK  249  A    between atoms: _597  and  _598
REMARK  250  A    between atoms: _597  and  _600
REMARK  251  A    between atoms: _600  and  _601
REMARK  252  A    between atoms: _601  and  _602
REMARK  253  A    between atoms: _602  and  _603
REMARK  254  A    between atoms: _612  and  _614
REMARK  255  A    between atoms: _614  and  _615
REMARK  256  A    between atoms: _614  and  _617
REMARK  257  A    between atoms: _617  and  _618
REMARK  258  A    between atoms: _618  and  _619
REMARK  259  A    between atoms: _619  and  _620
REMARK  260  A    between atoms: _629  and  _631
REMARK  261  A    between atoms: _631  and  _632
REMARK  262  A    between atoms: _631  and  _634
REMARK  263  A    between atoms: _634  and  _635
REMARK  264  A    between atoms: _640  and  _641
REMARK  265  A    between atoms: _643  and  _645
REMARK  266  A    between atoms: _645  and  _646
REMARK  267  A    between atoms: _645  and  _648
REMARK  268  A    between atoms: _648  and  _649
REMARK  269  A    between atoms: _652  and  _654
REMARK  270  A    between atoms: _654  and  _655
REMARK  271  A    between atoms: _654  and  _657
REMARK  272  A    between atoms: _657  and  _658
REMARK  273  A    between atoms: _658  and  _659
REMARK  274  A    between atoms: _659  and  _660
REMARK  275  A    between atoms: _660  and  _661
REMARK  276  A    between atoms: _665  and  _667
REMARK  277  A    between atoms: _667  and  _668
REMARK  278  A    between atoms: _667  and  _670
REMARK  279  A    between atoms: _670  and  _671
REMARK  280  A    between atoms: _676  and  _678
REMARK  281  A    between atoms: _678  and  _679
REMARK  282  A    between atoms: _678  and  _681
REMARK  283  A    between atoms: _681  and  _682
REMARK  284  A    between atoms: _692  and  _694
REMARK  285  A    between atoms: _694  and  _695
REMARK  286  A    between atoms: _694  and  _697
REMARK  287  A    between atoms: _697  and  _698
REMARK  288  A    between atoms: _698  and  _699
REMARK  289  A    between atoms: _702  and  _704
REMARK  290  A    between atoms: _704  and  _705
REMARK  291  A    between atoms: _704  and  _707
REMARK  292  A    between atoms: _707  and  _708
REMARK  293  A    between atoms: _711  and  _713
REMARK  294  A    between atoms: _713  and  _714
REMARK  295  A    between atoms: _713  and  _716
REMARK  296  A    between atoms: _716  and  _717
REMARK  297  A    between atoms: _722  and  _724
REMARK  298  A    between atoms: _724  and  _725
REMARK  299  A    between atoms: _724  and  _727
REMARK  300  A    between atoms: _727  and  _728
REMARK  301  A    between atoms: _734  and  _736
REMARK  302  A    between atoms: _736  and  _737
REMARK  303  A    between atoms: _736  and  _739
REMARK  304  A    between atoms: _739  and  _740
REMARK  305  A    between atoms: _742  and  _744
REMARK  306  A    between atoms: _744  and  _745
REMARK  307  A    between atoms: _747  and  _749
REMARK  308  A    between atoms: _749  and  _750
REMARK  309  A    between atoms: _749  and  _752
REMARK  310  A    between atoms: _752  and  _753
REMARK  311  A    between atoms: _758  and  _759
REMARK  312  A    between atoms: _761  and  _763
REMARK  313  A    between atoms: _763  and  _764
REMARK  314  A    between atoms: _763  and  _766
REMARK  315  A    between atoms: _766  and  _767
REMARK  316  A    between atoms: _772  and  _773
REMARK  317  A    between atoms: _775  and  _777
REMARK  318  A    between atoms: _777  and  _778
REMARK  319  A    between atoms: _777  and  _780
REMARK  320  A    between atoms: _780  and  _781
REMARK  321  A    between atoms: _785  and  ZN_876
REMARK  322  A    between atoms: _786  and  _788
REMARK  323  A    between atoms: _788  and  _789
REMARK  324  A    between atoms: _788  and  _791
REMARK  325  A    between atoms: _791  and  _792
REMARK  326  A    between atoms: _792  and  _793
REMARK  327  A    between atoms: _796  and  _798
REMARK  328  A    between atoms: _798  and  _799
REMARK  329  A    between atoms: _798  and  _801
REMARK  330  A    between atoms: _801  and  _802
REMARK  331  A    between atoms: _802  and  _803
REMARK  332  A    between atoms: _803  and  _804
REMARK  333  A    between atoms: _813  and  _815
REMARK  334  A    between atoms: _815  and  _816
REMARK  335  A    between atoms: _815  and  _818
REMARK  336  A    between atoms: _818  and  _819
REMARK  337  A    between atoms: _824  and  _825
REMARK  338  A    between atoms: _827  and  _829
REMARK  339  A    between atoms: _829  and  _830
REMARK  340  A    between atoms: _829  and  _832
REMARK  341  A    between atoms: _832  and  _833
REMARK  342  A    between atoms: _838  and  _840
REMARK  343  A    between atoms: _840  and  _841
REMARK  344  A    between atoms: _840  and  _843
REMARK  345  A    between atoms: _843  and  _844
REMARK  346  A    between atoms: _844  and  _845
REMARK  347  A    between atoms: _845  and  _846
REMARK  348  A    between atoms: _846  and  _847
REMARK  349  A    between atoms: _851  and  _853
REMARK  350  A    between atoms: _853  and  _854
REMARK  351  A    between atoms: _853  and  _856
REMARK  352  A    between atoms: _856  and  _857
REMARK  353  A    between atoms: _862  and  _863
REMARK  354  A    between atoms: _865  and  _867
REMARK  355  A    between atoms: _867  and  _868
REMARK  356  A    between atoms: _871  and  _873
REMARK  357  A    between atoms: _873  and  _874
REMARK                            x       y       z     vdW  Elec       q    Type
REMARK                         _______ _______ _______ _____ _____    ______ ____
ROOT
ATOM      1  O   HOH     1      34.844  55.700  51.236  0.00  0.00    +0.000 OA
ENDROOT
TORSDOF 0
REMARK  Name = ../refined-set-2016/2xei/2xei_pocket.pdb
REMARK  357 active torsions:
REMARK  status: ('A' for Active; 'I' for Inactive)
REMARK    1  A    between atoms: _1  and  _3
REMARK    2  A    between atoms: _3  and  _4
REMARK    3  A    between atoms: _7  and  _9
REMARK    4  A    between atoms: _9  and  _10
REMARK    5  A    between atoms: _9  and  _12
REMARK    6  A    between atoms: _12  and  _13
REMARK    7  A    between atoms: _19  and  _21
REMARK    8  A    between atoms: _21  and  _22
REMARK    9  A    between atoms: _24  and  _26
REMARK   10  A    between atoms: _26  and  _27
REMARK   11  A    between atoms: _26  and  _29
REMARK   12  A    between atoms: _29  and  _30
REMARK   13  A    between atoms: _30  and  _31
REMARK   14  A    between atoms: _31  and  _32
REMARK   15  A    between atoms: _32  and  _33
REMARK   16  A    between atoms: _37  and  _39
REMARK   17  A    between atoms: _39  and  _40
REMARK   18  A    between atoms: _39  and  _42
REMARK   19  A    between atoms: _45  and  _47
REMARK   20  A    between atoms: _47  and  _48
REMARK   21  A    between atoms: _47  and  _50
REMARK   22  A    between atoms: _50  and  _51
REMARK   23  A    between atoms: _57  and  _59
REMARK   24  A    between atoms: _59  and  _60
REMARK   25  A    between atoms: _59  and  _62
REMARK   26  A    between atoms: _62  and  _63
REMARK   27  A    between atoms: _63  and  _64
REMARK   28  A    between atoms: _64  and  _65
REMARK   29  A    between atoms: _74  and  _76
REMARK   30  A    between atoms: _76  and  _77
REMARK   31  A    between atoms: _79  and  _81
REMARK   32  A    between atoms: _81  and  _82
REMARK   33  A    between atoms: _81  and  _84
REMARK   34  A    between atoms: _84  and  _85
REMARK   35  A    between atoms: _90  and  _91
REMARK   36  A    between atoms: _93  and  _95
REMARK   37  A    between atoms: _95  and  _96
REMARK   38  A    between atoms: _95  and  _98
REMARK   39  A    between atoms: _98  and  _99
REMARK   40  A    between atoms: _99  and  _100
REMARK   41  A    between atoms: _105  and  _107
REMARK   42  A    between atoms: _107  and  _108
REMARK   43  A    between atoms: _107  and  _110
REMARK   44  A    between atoms: _110  and  _111
REMARK   45  A    between atoms: _111  and  _112
REMARK   46  A    between atoms: _112  and  _113
REMARK   47  A    between atoms: _122  and  _124
REMARK   48  A    between atoms: _124  and  _125
REMARK   49  A    between atoms: _127  and  _129
REMARK   50  A    between atoms: _129  and  _130
REMARK   51  A    between atoms: _129  and  _132
REMARK   52  A    between atoms: _132  and  _133
REMARK   53  A    between atoms: _138  and  _140
REMARK   54  A    between atoms: _140  and  _141
REMARK   55  A    between atoms: _140  and  _143
REMARK   56  A    between atoms: _143  and  _144
REMARK   57  A    between atoms: _147  and  _149
REMARK   58  A    between atoms: _149  and  _150
REMARK   59  A    between atoms: _149  and  _152
REMARK   60  A    between atoms: _152  and  _153
REMARK   61  A    between atoms: _156  and  _158
REMARK   62  A    between atoms: _158  and  _159
REMARK   63  A    between atoms: _158  and  _161
REMARK   64  A    between atoms: _161  and  _162
REMARK   65  A    between atoms: _167  and  _169
REMARK   66  A    between atoms: _169  and  _170
REMARK   67  A    between atoms: _169  and  _172
REMARK   68  A    between atoms: _172  and  _173
REMARK   69  A    between atoms: _176  and  _178
REMARK   70  A    between atoms: _178  and  _179
REMARK   71  A    between atoms: _178  and  _181
REMARK   72  A    between atoms: _181  and  _182
REMARK   73  A    between atoms: _187  and  _189
REMARK   74  A    between atoms: _189  and  _190
REMARK   75  A    between atoms: _192  and  _194
REMARK   76  A    between atoms: _194  and  _195
REMARK   77  A    between atoms: _194  and  _197
REMARK   78  A    between atoms: _197  and  _198
REMARK   79  A    between atoms: _202  and  ZN_877
REMARK   80  A    between atoms: _203  and  _205
REMARK   81  A    between atoms: _205  and  _206
REMARK   82  A    between atoms: _205  and  _208
REMARK   83  A    between atoms: _208  and  _209
REMARK   84  A    between atoms: _212  and  _214
REMARK   85  A    between atoms: _214  and  _215
REMARK   86  A    between atoms: _214  and  _217
REMARK   87  A    between atoms: _217  and  _218
REMARK   88  A    between atoms: _228  and  _230
REMARK   89  A    between atoms: _230  and  _231
REMARK   90  A    between atoms: _230  and  _233
REMARK   91  A    between atoms: _233  and  _234
REMARK   92  A    between atoms: _237  and  _239
REMARK   93  A    between atoms: _239  and  _240
REMARK   94  A    between atoms: _239  and  _242
REMARK   95  A    between atoms: _242  and  _243
REMARK   96  A    between atoms: _243  and  _244
REMARK   97  A    between atoms: _243  and  _245
REMARK   98  A    between atoms: _244  and  ZN_877
REMARK   99  A    between atoms: _245  and  ZN_876
REMARK  100  A    between atoms: _247  and  _248
REMARK  101  A    between atoms: _253  and  _255
REMARK  102  A    between atoms: _255  and  _256
REMARK  103  A    between atoms: _259  and  _261
REMARK  104  A    between atoms: _261  and  _262
REMARK  105  A    between atoms: _261  and  _264
REMARK  106  A    between atoms: _264  and  _265
REMARK  107  A    between atoms: _265  and  _266
REMARK  108  A    between atoms: _269  and  _271
REMARK  109  A    between atoms: _271  and  _272
REMARK  110  A    between atoms: _271  and  _274
REMARK  111  A    between atoms: _274  and  _275
REMARK  112  A    between atoms: _275  and  _276
REMARK  113  A    between atoms: _276  and  _278
REMARK  114  A    between atoms: _278  and  ZN_876
REMARK  115  A    between atoms: _279  and  _281
REMARK  116  A    between atoms: _281  and  _282
REMARK  117  A    between atoms: _281  and  _284
REMARK  118  A    between atoms: _284  and  _285
REMARK  119  A    between atoms: _291  and  _293
REMARK  120  A    between atoms: _293  and  _294
REMARK  121  A    between atoms: _296  and  _298
REMARK  122  A    between atoms: _298  and  _299
REMARK  123  A    between atoms: _298  and  _301
REMARK  124  A    between atoms: _301  and  _302
REMARK  125  A    between atoms: _305  and  _307
REMARK  126  A    between atoms: _307  and  _308
REMARK  127  A    between atoms: _307  and  _310
REMARK  128  A    between atoms: _310  and  _311
REMARK  129  A    between atoms: _314  and  _316
REMARK  130  A    between atoms: _316  and  _317
REMARK  131  A    between atoms: _316  and  _319
REMARK  132  A    between atoms: _319  and  _320
REMARK  133  A    between atoms: _325  and  _327
REMARK  134  A    between atoms: _327  and  _328
REMARK  135  A    between atoms: _327  and  _330
REMARK  136  A    between atoms: _330  and  _331
REMARK  137  A    between atoms: _331  and  _333
REMARK  138  A    between atoms: _333  and  ZN_877
REMARK  139  A    between atoms: _334  and  _336
REMARK  140  A    between atoms: _336  and  _337
REMARK  141  A    between atoms: _336  and  _339
REMARK  142  A    between atoms: _339  and  _340
REMARK  143  A    between atoms: _342  and  _344
REMARK  144  A    between atoms: _344  and  _345
REMARK  145  A    between atoms: _344  and  _347
REMARK  146  A    between atoms: _347  and  _348
REMARK  147  A    between atoms: _350  and  _352
REMARK  148  A    between atoms: _352  and  _353
REMARK  149  A    between atoms: _352  and  _355
REMARK  150  A    between atoms: _355  and  _356
REMARK  151  A    between atoms: _359  and  _361
REMARK  152  A    between atoms: _361  and  _362
REMARK  153  A    between atoms: _361  and  _364
REMARK  154  A    between atoms: _364  and  _365
REMARK  155  A    between atoms: _365  and  _366
REMARK  156  A    between atoms: _369  and  _371
REMARK  157  A    between atoms: _371  and  _372
REMARK  158  A    between atoms: _371  and  _374
REMARK  159  A    between atoms: _374  and  _375
REMARK  160  A    between atoms: _380  and  _381
REMARK  161  A    between atoms: _383  and  _385
REMARK  162  A    between atoms: _385  and  _386
REMARK  163  A    between atoms: _385  and  _388
REMARK  164  A    between atoms: _388  and  _389
REMARK  165  A    between atoms: _392  and  _394
REMARK  166  A    between atoms: _394  and  _395
REMARK  167  A    between atoms: _394  and  _397
REMARK  168  A    between atoms: _397  and  _398
REMARK  169  A    between atoms: _401  and  _403
REMARK  170  A    between atoms: _403  and  _404
REMARK  171  A    between atoms: _403  and  _406
REMARK  172  A    between atoms: _406  and  _407
REMARK  173  A    between atoms: _407  and  _408
REMARK  174  A    between atoms: _408  and  _409
REMARK  175  A    between atoms: _418  and  _420
REMARK  176  A    between atoms: _420  and  _421
REMARK  177  A    between atoms: _420  and  _423
REMARK  178  A    between atoms: _426  and  _428
REMARK  179  A    between atoms: _428  and  _429
REMARK  180  A    between atoms: _428  and  _431
REMARK  181  A    between atoms: _431  and  _432
REMARK  182  A    between atoms: _435  and  _437
REMARK  183  A    between atoms: _437  and  _438
REMARK  184  A    between atoms: _437  and  _440
REMARK  185  A    between atoms: _440  and  _441
REMARK  186  A    between atoms: _451  and  _453
REMARK  187  A    between atoms: _453  and  _454
REMARK  188  A    between atoms: _453  and  _456
REMARK  189  A    between atoms: _456  and  _457
REMARK  190  A    between atoms: _457  and  _458
REMARK  191  A    between atoms: _458  and  _459
REMARK  192  A    between atoms: _459  and  _460
REMARK  193  A    between atoms: _464  and  _466
REMARK  194  A    between atoms: _466  and  _467
REMARK  195  A    between atoms: _466  and  _469
REMARK  196  A    between atoms: _469  and  _470
REMARK  197  A    between atoms: _473  and  _474
REMARK  198  A    between atoms: _479  and  _481
REMARK  199  A    between atoms: _481  and  _482
REMARK  200  A    between atoms: _481  and  _484
REMARK  201  A    between atoms: _484  and  _485
REMARK  202  A    between atoms: _485  and  _486
REMARK  203  A    between atoms: _486  and  _487
REMARK  204  A    between atoms: _496  and  _498
REMARK  205  A    between atoms: _498  and  _499
REMARK  206  A    between atoms: _498  and  _501
REMARK  207  A    between atoms: _501  and  _502
REMARK  208  A    between atoms: _505  and  _507
REMARK  209  A    between atoms: _507  and  _508
REMARK  210  A    between atoms: _507  and  _510
REMARK  211  A    between atoms: _510  and  _511
REMARK  212  A    between atoms: _513  and  _515
REMARK  213  A    between atoms: _515  and  _516
REMARK  214  A    between atoms: _515  and  _518
REMARK  215  A    between atoms: _518  and  _519
REMARK  216  A    between atoms: _519  and  _520
REMARK  217  A    between atoms: _520  and  _521
REMARK  218  A    between atoms: _521  and  _522
REMARK  219  A    between atoms: _526  and  _528
REMARK  220  A    between atoms: _528  and  _529
REMARK  221  A    between atoms: _528  and  _531
REMARK  222  A    between atoms: _531  and  _532
REMARK  223  A    between atoms: _535  and  _537
REMARK  224  A    between atoms: _537  and  _538
REMARK  225  A    between atoms: _540  and  _542
REMARK  226  A    between atoms: _542  and  _543
REMARK  227  A    between atoms: _542  and  _545
REMARK  228  A    between atoms: _545  and  _546
REMARK  229  A    between atoms: _548  and  _550
REMARK  230  A    between atoms: _550  and  _551
REMARK  231  A    between atoms: _553  and  _555
REMARK  232  A    between atoms: _555  and  _556
REMARK  233  A    between atoms: _555  and  _558
REMARK  234  A    between atoms: _558  and  _559
REMARK  235  A    between atoms: _564  and  _566
REMARK  236  A    between atoms: _566  and  _567
REMARK  237  A    between atoms: _566  and  _569
REMARK  238  A    between atoms: _569  and  _570
REMARK  239  A    between atoms: _573  and  _575
REMARK  240  A    between atoms: _575  and  _576
REMARK  241  A    between atoms: _575  and  _578
REMARK  242  A    between atoms: _578  and  _579
REMARK  243  A    between atoms: _585  and  _587
REMARK  244  A    between atoms: _587  and  _588
REMARK  245  A    between atoms: _587  and  _590
REMARK  246  A    between atoms: _590  and  _591
REMARK  247  A    between atoms: _591  and  _592
REMARK  248  A    between atoms: _595  and  _597
REMARK  249  A    between atoms: _597  and  _598
REMARK  250  A    between atoms: _597  and  _600
REMARK  251  A    between atoms: _600  and  _601
REMARK  252  A    between atoms: _601  and  _602
REMARK  253  A    between atoms: _602  and  _603
REMARK  254  A    between atoms: _612  and  _614
REMARK  255  A    between atoms: _614  and  _615
REMARK  256  A    between atoms: _614  and  _617
REMARK  257  A    between atoms: _617  and  _618
REMARK  258  A    between atoms: _618  and  _619
REMARK  259  A    between atoms: _619  and  _620
REMARK  260  A    between atoms: _629  and  _631
REMARK  261  A    between atoms: _631  and  _632
REMARK  262  A    between atoms: _631  and  _634
REMARK  263  A    between atoms: _634  and  _635
REMARK  264  A    between atoms: _640  and  _641
REMARK  265  A    between atoms: _643  and  _645
REMARK  266  A    between atoms: _645  and  _646
REMARK  267  A    between atoms: _645  and  _648
REMARK  268  A    between atoms: _648  and  _649
REMARK  269  A    between atoms: _652  and  _654
REMARK  270  A    between atoms: _654  and  _655
REMARK  271  A    between atoms: _654  and  _657
REMARK  272  A    between atoms: _657  and  _658
REMARK  273  A    between atoms: _658  and  _659
REMARK  274  A    between atoms: _659  and  _660
REMARK  275  A    between atoms: _660  and  _661
REMARK  276  A    between atoms: _665  and  _667
REMARK  277  A    between atoms: _667  and  _668
REMARK  278  A    between atoms: _667  and  _670
REMARK  279  A    between atoms: _670  and  _671
REMARK  280  A    between atoms: _676  and  _678
REMARK  281  A    between atoms: _678  and  _679
REMARK  282  A    between atoms: _678  and  _681
REMARK  283  A    between atoms: _681  and  _682
REMARK  284  A    between atoms: _692  and  _694
REMARK  285  A    between atoms: _694  and  _695
REMARK  286  A    between atoms: _694  and  _697
REMARK  287  A    between atoms: _697  and  _698
REMARK  288  A    between atoms: _698  and  _699
REMARK  289  A    between atoms: _702  and  _704
REMARK  290  A    between atoms: _704  and  _705
REMARK  291  A    between atoms: _704  and  _707
REMARK  292  A    between atoms: _707  and  _708
REMARK  293  A    between atoms: _711  and  _713
REMARK  294  A    between atoms: _713  and  _714
REMARK  295  A    between atoms: _713  and  _716
REMARK  296  A    between atoms: _716  and  _717
REMARK  297  A    between atoms: _722  and  _724
REMARK  298  A    between atoms: _724  and  _725
REMARK  299  A    between atoms: _724  and  _727
REMARK  300  A    between atoms: _727  and  _728
REMARK  301  A    between atoms: _734  and  _736
REMARK  302  A    between atoms: _736  and  _737
REMARK  303  A    between atoms: _736  and  _739
REMARK  304  A    between atoms: _739  and  _740
REMARK  305  A    between atoms: _742  and  _744
REMARK  306  A    between atoms: _744  and  _745
REMARK  307  A    between atoms: _747  and  _749
REMARK  308  A    between atoms: _749  and  _750
REMARK  309  A    between atoms: _749  and  _752
REMARK  310  A    between atoms: _752  and  _753
REMARK  311  A    between atoms: _758  and  _759
REMARK  312  A    between atoms: _761  and  _763
REMARK  313  A    between atoms: _763  and  _764
REMARK  314  A    between atoms: _763  and  _766
REMARK  315  A    between atoms: _766  and  _767
REMARK  316  A    between atoms: _772  and  _773
REMARK  317  A    between atoms: _775  and  _777
REMARK  318  A    between atoms: _777  and  _778
REMARK  319  A    between atoms: _777  and  _780
REMARK  320  A    between atoms: _780  and  _781
REMARK  321  A    between atoms: _785  and  ZN_876
REMARK  322  A    between atoms: _786  and  _788
REMARK  323  A    between atoms: _788  and  _789
REMARK  324  A    between atoms: _788  and  _791
REMARK  325  A    between atoms: _791  and  _792
REMARK  326  A    between atoms: _792  and  _793
REMARK  327  A    between atoms: _796  and  _798
REMARK  328  A    between atoms: _798  and  _799
REMARK  329  A    between atoms: _798  and  _801
REMARK  330  A    between atoms: _801  and  _802
REMARK  331  A    between atoms: _802  and  _803
REMARK  332  A    between atoms: _803  and  _804
REMARK  333  A    between atoms: _813  and  _815
REMARK  334  A    between atoms: _815  and  _816
REMARK  335  A    between atoms: _815  and  _818
REMARK  336  A    between atoms: _818  and  _819
REMARK  337  A    between atoms: _824  and  _825
REMARK  338  A    between atoms: _827  and  _829
REMARK  339  A    between atoms: _829  and  _830
REMARK  340  A    between atoms: _829  and  _832
REMARK  341  A    between atoms: _832  and  _833
REMARK  342  A    between atoms: _838  and  _840
REMARK  343  A    between atoms: _840  and  _841
REMARK  344  A    between atoms: _840  and  _843
REMARK  345  A    between atoms: _843  and  _844
REMARK  346  A    between atoms: _844  and  _845
REMARK  347  A    between atoms: _845  and  _846
REMARK  348  A    between atoms: _846  and  _847
REMARK  349  A    between atoms: _851  and  _853
REMARK  350  A    between atoms: _853  and  _854
REMARK  351  A    between atoms: _853  and  _856
REMARK  352  A    between atoms: _856  and  _857
REMARK  353  A    between atoms: _862  and  _863
REMARK  354  A    between atoms: _865  and  _867
REMARK  355  A    between atoms: _867  and  _868
REMARK  356  A    between atoms: _871  and  _873
REMARK  357  A    between atoms: _873  and  _874
REMARK                            x       y       z     vdW  Elec       q    Type
REMARK                         _______ _______ _______ _____ _____    ______ ____
ROOT
ATOM      1  O   HOH     1      28.566  53.709  52.988  0.00  0.00    +0.000 OA
ENDROOT
TORSDOF 0
REMARK  Name = ../refined-set-2016/2xei/2xei_pocket.pdb
REMARK  357 active torsions:
REMARK  status: ('A' for Active; 'I' for Inactive)
REMARK    1  A    between atoms: _1  and  _3
REMARK    2  A    between atoms: _3  and  _4
REMARK    3  A    between atoms: _7  and  _9
REMARK    4  A    between atoms: _9  and  _10
REMARK    5  A    between atoms: _9  and  _12
REMARK    6  A    between atoms: _12  and  _13
REMARK    7  A    between atoms: _19  and  _21
REMARK    8  A    between atoms: _21  and  _22
REMARK    9  A    between atoms: _24  and  _26
REMARK   10  A    between atoms: _26  and  _27
REMARK   11  A    between atoms: _26  and  _29
REMARK   12  A    between atoms: _29  and  _30
REMARK   13  A    between atoms: _30  and  _31
REMARK   14  A    between atoms: _31  and  _32
REMARK   15  A    between atoms: _32  and  _33
REMARK   16  A    between atoms: _37  and  _39
REMARK   17  A    between atoms: _39  and  _40
REMARK   18  A    between atoms: _39  and  _42
REMARK   19  A    between atoms: _45  and  _47
REMARK   20  A    between atoms: _47  and  _48
REMARK   21  A    between atoms: _47  and  _50
REMARK   22  A    between atoms: _50  and  _51
REMARK   23  A    between atoms: _57  and  _59
REMARK   24  A    between atoms: _59  and  _60
REMARK   25  A    between atoms: _59  and  _62
REMARK   26  A    between atoms: _62  and  _63
REMARK   27  A    between atoms: _63  and  _64
REMARK   28  A    between atoms: _64  and  _65
REMARK   29  A    between atoms: _74  and  _76
REMARK   30  A    between atoms: _76  and  _77
REMARK   31  A    between atoms: _79  and  _81
REMARK   32  A    between atoms: _81  and  _82
REMARK   33  A    between atoms: _81  and  _84
REMARK   34  A    between atoms: _84  and  _85
REMARK   35  A    between atoms: _90  and  _91
REMARK   36  A    between atoms: _93  and  _95
REMARK   37  A    between atoms: _95  and  _96
REMARK   38  A    between atoms: _95  and  _98
REMARK   39  A    between atoms: _98  and  _99
REMARK   40  A    between atoms: _99  and  _100
REMARK   41  A    between atoms: _105  and  _107
REMARK   42  A    between atoms: _107  and  _108
REMARK   43  A    between atoms: _107  and  _110
REMARK   44  A    between atoms: _110  and  _111
REMARK   45  A    between atoms: _111  and  _112
REMARK   46  A    between atoms: _112  and  _113
REMARK   47  A    between atoms: _122  and  _124
REMARK   48  A    between atoms: _124  and  _125
REMARK   49  A    between atoms: _127  and  _129
REMARK   50  A    between atoms: _129  and  _130
REMARK   51  A    between atoms: _129  and  _132
REMARK   52  A    between atoms: _132  and  _133
REMARK   53  A    between atoms: _138  and  _140
REMARK   54  A    between atoms: _140  and  _141
REMARK   55  A    between atoms: _140  and  _143
REMARK   56  A    between atoms: _143  and  _144
REMARK   57  A    between atoms: _147  and  _149
REMARK   58  A    between atoms: _149  and  _150
REMARK   59  A    between atoms: _149  and  _152
REMARK   60  A    between atoms: _152  and  _153
REMARK   61  A    between atoms: _156  and  _158
REMARK   62  A    between atoms: _158  and  _159
REMARK   63  A    between atoms: _158  and  _161
REMARK   64  A    between atoms: _161  and  _162
REMARK   65  A    between atoms: _167  and  _169
REMARK   66  A    between atoms: _169  and  _170
REMARK   67  A    between atoms: _169  and  _172
REMARK   68  A    between atoms: _172  and  _173
REMARK   69  A    between atoms: _176  and  _178
REMARK   70  A    between atoms: _178  and  _179
REMARK   71  A    between atoms: _178  and  _181
REMARK   72  A    between atoms: _181  and  _182
REMARK   73  A    between atoms: _187  and  _189
REMARK   74  A    between atoms: _189  and  _190
REMARK   75  A    between atoms: _192  and  _194
REMARK   76  A    between atoms: _194  and  _195
REMARK   77  A    between atoms: _194  and  _197
REMARK   78  A    between atoms: _197  and  _198
REMARK   79  A    between atoms: _202  and  ZN_877
REMARK   80  A    between atoms: _203  and  _205
REMARK   81  A    between atoms: _205  and  _206
REMARK   82  A    between atoms: _205  and  _208
REMARK   83  A    between atoms: _208  and  _209
REMARK   84  A    between atoms: _212  and  _214
REMARK   85  A    between atoms: _214  and  _215
REMARK   86  A    between atoms: _214  and  _217
REMARK   87  A    between atoms: _217  and  _218
REMARK   88  A    between atoms: _228  and  _230
REMARK   89  A    between atoms: _230  and  _231
REMARK   90  A    between atoms: _230  and  _233
REMARK   91  A    between atoms: _233  and  _234
REMARK   92  A    between atoms: _237  and  _239
REMARK   93  A    between atoms: _239  and  _240
REMARK   94  A    between atoms: _239  and  _242
REMARK   95  A    between atoms: _242  and  _243
REMARK   96  A    between atoms: _243  and  _244
REMARK   97  A    between atoms: _243  and  _245
REMARK   98  A    between atoms: _244  and  ZN_877
REMARK   99  A    between atoms: _245  and  ZN_876
REMARK  100  A    between atoms: _247  and  _248
REMARK  101  A    between atoms: _253  and  _255
REMARK  102  A    between atoms: _255  and  _256
REMARK  103  A    between atoms: _259  and  _261
REMARK  104  A    between atoms: _261  and  _262
REMARK  105  A    between atoms: _261  and  _264
REMARK  106  A    between atoms: _264  and  _265
REMARK  107  A    between atoms: _265  and  _266
REMARK  108  A    between atoms: _269  and  _271
REMARK  109  A    between atoms: _271  and  _272
REMARK  110  A    between atoms: _271  and  _274
REMARK  111  A    between atoms: _274  and  _275
REMARK  112  A    between atoms: _275  and  _276
REMARK  113  A    between atoms: _276  and  _278
REMARK  114  A    between atoms: _278  and  ZN_876
REMARK  115  A    between atoms: _279  and  _281
REMARK  116  A    between atoms: _281  and  _282
REMARK  117  A    between atoms: _281  and  _284
REMARK  118  A    between atoms: _284  and  _285
REMARK  119  A    between atoms: _291  and  _293
REMARK  120  A    between atoms: _293  and  _294
REMARK  121  A    between atoms: _296  and  _298
REMARK  122  A    between atoms: _298  and  _299
REMARK  123  A    between atoms: _298  and  _301
REMARK  124  A    between atoms: _301  and  _302
REMARK  125  A    between atoms: _305  and  _307
REMARK  126  A    between atoms: _307  and  _308
REMARK  127  A    between atoms: _307  and  _310
REMARK  128  A    between atoms: _310  and  _311
REMARK  129  A    between atoms: _314  and  _316
REMARK  130  A    between atoms: _316  and  _317
REMARK  131  A    between atoms: _316  and  _319
REMARK  132  A    between atoms: _319  and  _320
REMARK  133  A    between atoms: _325  and  _327
REMARK  134  A    between atoms: _327  and  _328
REMARK  135  A    between atoms: _327  and  _330
REMARK  136  A    between atoms: _330  and  _331
REMARK  137  A    between atoms: _331  and  _333
REMARK  138  A    between atoms: _333  and  ZN_877
REMARK  139  A    between atoms: _334  and  _336
REMARK  140  A    between atoms: _336  and  _337
REMARK  141  A    between atoms: _336  and  _339
REMARK  142  A    between atoms: _339  and  _340
REMARK  143  A    between atoms: _342  and  _344
REMARK  144  A    between atoms: _344  and  _345
REMARK  145  A    between atoms: _344  and  _347
REMARK  146  A    between atoms: _347  and  _348
REMARK  147  A    between atoms: _350  and  _352
REMARK  148  A    between atoms: _352  and  _353
REMARK  149  A    between atoms: _352  and  _355
REMARK  150  A    between atoms: _355  and  _356
REMARK  151  A    between atoms: _359  and  _361
REMARK  152  A    between atoms: _361  and  _362
REMARK  153  A    between atoms: _361  and  _364
REMARK  154  A    between atoms: _364  and  _365
REMARK  155  A    between atoms: _365  and  _366
REMARK  156  A    between atoms: _369  and  _371
REMARK  157  A    between atoms: _371  and  _372
REMARK  158  A    between atoms: _371  and  _374
REMARK  159  A    between atoms: _374  and  _375
REMARK  160  A    between atoms: _380  and  _381
REMARK  161  A    between atoms: _383  and  _385
REMARK  162  A    between atoms: _385  and  _386
REMARK  163  A    between atoms: _385  and  _388
REMARK  164  A    between atoms: _388  and  _389
REMARK  165  A    between atoms: _392  and  _394
REMARK  166  A    between atoms: _394  and  _395
REMARK  167  A    between atoms: _394  and  _397
REMARK  168  A    between atoms: _397  and  _398
REMARK  169  A    between atoms: _401  and  _403
REMARK  170  A    between atoms: _403  and  _404
REMARK  171  A    between atoms: _403  and  _406
REMARK  172  A    between atoms: _406  and  _407
REMARK  173  A    between atoms: _407  and  _408
REMARK  174  A    between atoms: _408  and  _409
REMARK  175  A    between atoms: _418  and  _420
REMARK  176  A    between atoms: _420  and  _421
REMARK  177  A    between atoms: _420  and  _423
REMARK  178  A    between atoms: _426  and  _428
REMARK  179  A    between atoms: _428  and  _429
REMARK  180  A    between atoms: _428  and  _431
REMARK  181  A    between atoms: _431  and  _432
REMARK  182  A    between atoms: _435  and  _437
REMARK  183  A    between atoms: _437  and  _438
REMARK  184  A    between atoms: _437  and  _440
REMARK  185  A    between atoms: _440  and  _441
REMARK  186  A    between atoms: _451  and  _453
REMARK  187  A    between atoms: _453  and  _454
REMARK  188  A    between atoms: _453  and  _456
REMARK  189  A    between atoms: _456  and  _457
REMARK  190  A    between atoms: _457  and  _458
REMARK  191  A    between atoms: _458  and  _459
REMARK  192  A    between atoms: _459  and  _460
REMARK  193  A    between atoms: _464  and  _466
REMARK  194  A    between atoms: _466  and  _467
REMARK  195  A    between atoms: _466  and  _469
REMARK  196  A    between atoms: _469  and  _470
REMARK  197  A    between atoms: _473  and  _474
REMARK  198  A    between atoms: _479  and  _481
REMARK  199  A    between atoms: _481  and  _482
REMARK  200  A    between atoms: _481  and  _484
REMARK  201  A    between atoms: _484  and  _485
REMARK  202  A    between atoms: _485  and  _486
REMARK  203  A    between atoms: _486  and  _487
REMARK  204  A    between atoms: _496  and  _498
REMARK  205  A    between atoms: _498  and  _499
REMARK  206  A    between atoms: _498  and  _501
REMARK  207  A    between atoms: _501  and  _502
REMARK  208  A    between atoms: _505  and  _507
REMARK  209  A    between atoms: _507  and  _508
REMARK  210  A    between atoms: _507  and  _510
REMARK  211  A    between atoms: _510  and  _511
REMARK  212  A    between atoms: _513  and  _515
REMARK  213  A    between atoms: _515  and  _516
REMARK  214  A    between atoms: _515  and  _518
REMARK  215  A    between atoms: _518  and  _519
REMARK  216  A    between atoms: _519  and  _520
REMARK  217  A    between atoms: _520  and  _521
REMARK  218  A    between atoms: _521  and  _522
REMARK  219  A    between atoms: _526  and  _528
REMARK  220  A    between atoms: _528  and  _529
REMARK  221  A    between atoms: _528  and  _531
REMARK  222  A    between atoms: _531  and  _532
REMARK  223  A    between atoms: _535  and  _537
REMARK  224  A    between atoms: _537  and  _538
REMARK  225  A    between atoms: _540  and  _542
REMARK  226  A    between atoms: _542  and  _543
REMARK  227  A    between atoms: _542  and  _545
REMARK  228  A    between atoms: _545  and  _546
REMARK  229  A    between atoms: _548  and  _550
REMARK  230  A    between atoms: _550  and  _551
REMARK  231  A    between atoms: _553  and  _555
REMARK  232  A    between atoms: _555  and  _556
REMARK  233  A    between atoms: _555  and  _558
REMARK  234  A    between atoms: _558  and  _559
REMARK  235  A    between atoms: _564  and  _566
REMARK  236  A    between atoms: _566  and  _567
REMARK  237  A    between atoms: _566  and  _569
REMARK  238  A    between atoms: _569  and  _570
REMARK  239  A    between atoms: _573  and  _575
REMARK  240  A    between atoms: _575  and  _576
REMARK  241  A    between atoms: _575  and  _578
REMARK  242  A    between atoms: _578  and  _579
REMARK  243  A    between atoms: _585  and  _587
REMARK  244  A    between atoms: _587  and  _588
REMARK  245  A    between atoms: _587  and  _590
REMARK  246  A    between atoms: _590  and  _591
REMARK  247  A    between atoms: _591  and  _592
REMARK  248  A    between atoms: _595  and  _597
REMARK  249  A    between atoms: _597  and  _598
REMARK  250  A    between atoms: _597  and  _600
REMARK  251  A    between atoms: _600  and  _601
REMARK  252  A    between atoms: _601  and  _602
REMARK  253  A    between atoms: _602  and  _603
REMARK  254  A    between atoms: _612  and  _614
REMARK  255  A    between atoms: _614  and  _615
REMARK  256  A    between atoms: _614  and  _617
REMARK  257  A    between atoms: _617  and  _618
REMARK  258  A    between atoms: _618  and  _619
REMARK  259  A    between atoms: _619  and  _620
REMARK  260  A    between atoms: _629  and  _631
REMARK  261  A    between atoms: _631  and  _632
REMARK  262  A    between atoms: _631  and  _634
REMARK  263  A    between atoms: _634  and  _635
REMARK  264  A    between atoms: _640  and  _641
REMARK  265  A    between atoms: _643  and  _645
REMARK  266  A    between atoms: _645  and  _646
REMARK  267  A    between atoms: _645  and  _648
REMARK  268  A    between atoms: _648  and  _649
REMARK  269  A    between atoms: _652  and  _654
REMARK  270  A    between atoms: _654  and  _655
REMARK  271  A    between atoms: _654  and  _657
REMARK  272  A    between atoms: _657  and  _658
REMARK  273  A    between atoms: _658  and  _659
REMARK  274  A    between atoms: _659  and  _660
REMARK  275  A    between atoms: _660  and  _661
REMARK  276  A    between atoms: _665  and  _667
REMARK  277  A    between atoms: _667  and  _668
REMARK  278  A    between atoms: _667  and  _670
REMARK  279  A    between atoms: _670  and  _671
REMARK  280  A    between atoms: _676  and  _678
REMARK  281  A    between atoms: _678  and  _679
REMARK  282  A    between atoms: _678  and  _681
REMARK  283  A    between atoms: _681  and  _682
REMARK  284  A    between atoms: _692  and  _694
REMARK  285  A    between atoms: _694  and  _695
REMARK  286  A    between atoms: _694  and  _697
REMARK  287  A    between atoms: _697  and  _698
REMARK  288  A    between atoms: _698  and  _699
REMARK  289  A    between atoms: _702  and  _704
REMARK  290  A    between atoms: _704  and  _705
REMARK  291  A    between atoms: _704  and  _707
REMARK  292  A    between atoms: _707  and  _708
REMARK  293  A    between atoms: _711  and  _713
REMARK  294  A    between atoms: _713  and  _714
REMARK  295  A    between atoms: _713  and  _716
REMARK  296  A    between atoms: _716  and  _717
REMARK  297  A    between atoms: _722  and  _724
REMARK  298  A    between atoms: _724  and  _725
REMARK  299  A    between atoms: _724  and  _727
REMARK  300  A    between atoms: _727  and  _728
REMARK  301  A    between atoms: _734  and  _736
REMARK  302  A    between atoms: _736  and  _737
REMARK  303  A    between atoms: _736  and  _739
REMARK  304  A    between atoms: _739  and  _740
REMARK  305  A    between atoms: _742  and  _744
REMARK  306  A    between atoms: _744  and  _745
REMARK  307  A    between atoms: _747  and  _749
REMARK  308  A    between atoms: _749  and  _750
REMARK  309  A    between atoms: _749  and  _752
REMARK  310  A    between atoms: _752  and  _753
REMARK  311  A    between atoms: _758  and  _759
REMARK  312  A    between atoms: _761  and  _763
REMARK  313  A    between atoms: _763  and  _764
REMARK  314  A    between atoms: _763  and  _766
REMARK  315  A    between atoms: _766  and  _767
REMARK  316  A    between atoms: _772  and  _773
REMARK  317  A    between atoms: _775  and  _777
REMARK  318  A    between atoms: _777  and  _778
REMARK  319  A    between atoms: _777  and  _780
REMARK  320  A    between atoms: _780  and  _781
REMARK  321  A    between atoms: _785  and  ZN_876
REMARK  322  A    between atoms: _786  and  _788
REMARK  323  A    between atoms: _788  and  _789
REMARK  324  A    between atoms: _788  and  _791
REMARK  325  A    between atoms: _791  and  _792
REMARK  326  A    between atoms: _792  and  _793
REMARK  327  A    between atoms: _796  and  _798
REMARK  328  A    between atoms: _798  and  _799
REMARK  329  A    between atoms: _798  and  _801
REMARK  330  A    between atoms: _801  and  _802
REMARK  331  A    between atoms: _802  and  _803
REMARK  332  A    between atoms: _803  and  _804
REMARK  333  A    between atoms: _813  and  _815
REMARK  334  A    between atoms: _815  and  _816
REMARK  335  A    between atoms: _815  and  _818
REMARK  336  A    between atoms: _818  and  _819
REMARK  337  A    between atoms: _824  and  _825
REMARK  338  A    between atoms: _827  and  _829
REMARK  339  A    between atoms: _829  and  _830
REMARK  340  A    between atoms: _829  and  _832
REMARK  341  A    between atoms: _832  and  _833
REMARK  342  A    between atoms: _838  and  _840
REMARK  343  A    between atoms: _840  and  _841
REMARK  344  A    between atoms: _840  and  _843
REMARK  345  A    between atoms: _843  and  _844
REMARK  346  A    between atoms: _844  and  _845
REMARK  347  A    between atoms: _845  and  _846
REMARK  348  A    between atoms: _846  and  _847
REMARK  349  A    between atoms: _851  and  _853
REMARK  350  A    between atoms: _853  and  _854
REMARK  351  A    between atoms: _853  and  _856
REMARK  352  A    between atoms: _856  and  _857
REMARK  353  A    between atoms: _862  and  _863
REMARK  354  A    between atoms: _865  and  _867
REMARK  355  A    between atoms: _867  and  _868
REMARK  356  A    between atoms: _871  and  _873
REMARK  357  A    between atoms: _873  and  _874
REMARK                            x       y       z     vdW  Elec       q    Type
REMARK                         _______ _______ _______ _____ _____    ______ ____
ROOT
ATOM      1  O   HOH     1      27.221  53.800  50.668  0.00  0.00    +0.000 OA
ENDROOT
TORSDOF 0
REMARK  Name = ../refined-set-2016/2xei/2xei_pocket.pdb
REMARK  357 active torsions:
REMARK  status: ('A' for Active; 'I' for Inactive)
REMARK    1  A    between atoms: _1  and  _3
REMARK    2  A    between atoms: _3  and  _4
REMARK    3  A    between atoms: _7  and  _9
REMARK    4  A    between atoms: _9  and  _10
REMARK    5  A    between atoms: _9  and  _12
REMARK    6  A    between atoms: _12  and  _13
REMARK    7  A    between atoms: _19  and  _21
REMARK    8  A    between atoms: _21  and  _22
REMARK    9  A    between atoms: _24  and  _26
REMARK   10  A    between atoms: _26  and  _27
REMARK   11  A    between atoms: _26  and  _29
REMARK   12  A    between atoms: _29  and  _30
REMARK   13  A    between atoms: _30  and  _31
REMARK   14  A    between atoms: _31  and  _32
REMARK   15  A    between atoms: _32  and  _33
REMARK   16  A    between atoms: _37  and  _39
REMARK   17  A    between atoms: _39  and  _40
REMARK   18  A    between atoms: _39  and  _42
REMARK   19  A    between atoms: _45  and  _47
REMARK   20  A    between atoms: _47  and  _48
REMARK   21  A    between atoms: _47  and  _50
REMARK   22  A    between atoms: _50  and  _51
REMARK   23  A    between atoms: _57  and  _59
REMARK   24  A    between atoms: _59  and  _60
REMARK   25  A    between atoms: _59  and  _62
REMARK   26  A    between atoms: _62  and  _63
REMARK   27  A    between atoms: _63  and  _64
REMARK   28  A    between atoms: _64  and  _65
REMARK   29  A    between atoms: _74  and  _76
REMARK   30  A    between atoms: _76  and  _77
REMARK   31  A    between atoms: _79  and  _81
REMARK   32  A    between atoms: _81  and  _82
REMARK   33  A    between atoms: _81  and  _84
REMARK   34  A    between atoms: _84  and  _85
REMARK   35  A    between atoms: _90  and  _91
REMARK   36  A    between atoms: _93  and  _95
REMARK   37  A    between atoms: _95  and  _96
REMARK   38  A    between atoms: _95  and  _98
REMARK   39  A    between atoms: _98  and  _99
REMARK   40  A    between atoms: _99  and  _100
REMARK   41  A    between atoms: _105  and  _107
REMARK   42  A    between atoms: _107  and  _108
REMARK   43  A    between atoms: _107  and  _110
REMARK   44  A    between atoms: _110  and  _111
REMARK   45  A    between atoms: _111  and  _112
REMARK   46  A    between atoms: _112  and  _113
REMARK   47  A    between atoms: _122  and  _124
REMARK   48  A    between atoms: _124  and  _125
REMARK   49  A    between atoms: _127  and  _129
REMARK   50  A    between atoms: _129  and  _130
REMARK   51  A    between atoms: _129  and  _132
REMARK   52  A    between atoms: _132  and  _133
REMARK   53  A    between atoms: _138  and  _140
REMARK   54  A    between atoms: _140  and  _141
REMARK   55  A    between atoms: _140  and  _143
REMARK   56  A    between atoms: _143  and  _144
REMARK   57  A    between atoms: _147  and  _149
REMARK   58  A    between atoms: _149  and  _150
REMARK   59  A    between atoms: _149  and  _152
REMARK   60  A    between atoms: _152  and  _153
REMARK   61  A    between atoms: _156  and  _158
REMARK   62  A    between atoms: _158  and  _159
REMARK   63  A    between atoms: _158  and  _161
REMARK   64  A    between atoms: _161  and  _162
REMARK   65  A    between atoms: _167  and  _169
REMARK   66  A    between atoms: _169  and  _170
REMARK   67  A    between atoms: _169  and  _172
REMARK   68  A    between atoms: _172  and  _173
REMARK   69  A    between atoms: _176  and  _178
REMARK   70  A    between atoms: _178  and  _179
REMARK   71  A    between atoms: _178  and  _181
REMARK   72  A    between atoms: _181  and  _182
REMARK   73  A    between atoms: _187  and  _189
REMARK   74  A    between atoms: _189  and  _190
REMARK   75  A    between atoms: _192  and  _194
REMARK   76  A    between atoms: _194  and  _195
REMARK   77  A    between atoms: _194  and  _197
REMARK   78  A    between atoms: _197  and  _198
REMARK   79  A    between atoms: _202  and  ZN_877
REMARK   80  A    between atoms: _203  and  _205
REMARK   81  A    between atoms: _205  and  _206
REMARK   82  A    between atoms: _205  and  _208
REMARK   83  A    between atoms: _208  and  _209
REMARK   84  A    between atoms: _212  and  _214
REMARK   85  A    between atoms: _214  and  _215
REMARK   86  A    between atoms: _214  and  _217
REMARK   87  A    between atoms: _217  and  _218
REMARK   88  A    between atoms: _228  and  _230
REMARK   89  A    between atoms: _230  and  _231
REMARK   90  A    between atoms: _230  and  _233
REMARK   91  A    between atoms: _233  and  _234
REMARK   92  A    between atoms: _237  and  _239
REMARK   93  A    between atoms: _239  and  _240
REMARK   94  A    between atoms: _239  and  _242
REMARK   95  A    between atoms: _242  and  _243
REMARK   96  A    between atoms: _243  and  _244
REMARK   97  A    between atoms: _243  and  _245
REMARK   98  A    between atoms: _244  and  ZN_877
REMARK   99  A    between atoms: _245  and  ZN_876
REMARK  100  A    between atoms: _247  and  _248
REMARK  101  A    between atoms: _253  and  _255
REMARK  102  A    between atoms: _255  and  _256
REMARK  103  A    between atoms: _259  and  _261
REMARK  104  A    between atoms: _261  and  _262
REMARK  105  A    between atoms: _261  and  _264
REMARK  106  A    between atoms: _264  and  _265
REMARK  107  A    between atoms: _265  and  _266
REMARK  108  A    between atoms: _269  and  _271
REMARK  109  A    between atoms: _271  and  _272
REMARK  110  A    between atoms: _271  and  _274
REMARK  111  A    between atoms: _274  and  _275
REMARK  112  A    between atoms: _275  and  _276
REMARK  113  A    between atoms: _276  and  _278
REMARK  114  A    between atoms: _278  and  ZN_876
REMARK  115  A    between atoms: _279  and  _281
REMARK  116  A    between atoms: _281  and  _282
REMARK  117  A    between atoms: _281  and  _284
REMARK  118  A    between atoms: _284  and  _285
REMARK  119  A    between atoms: _291  and  _293
REMARK  120  A    between atoms: _293  and  _294
REMARK  121  A    between atoms: _296  and  _298
REMARK  122  A    between atoms: _298  and  _299
REMARK  123  A    between atoms: _298  and  _301
REMARK  124  A    between atoms: _301  and  _302
REMARK  125  A    between atoms: _305  and  _307
REMARK  126  A    between atoms: _307  and  _308
REMARK  127  A    between atoms: _307  and  _310
REMARK  128  A    between atoms: _310  and  _311
REMARK  129  A    between atoms: _314  and  _316
REMARK  130  A    between atoms: _316  and  _317
REMARK  131  A    between atoms: _316  and  _319
REMARK  132  A    between atoms: _319  and  _320
REMARK  133  A    between atoms: _325  and  _327
REMARK  134  A    between atoms: _327  and  _328
REMARK  135  A    between atoms: _327  and  _330
REMARK  136  A    between atoms: _330  and  _331
REMARK  137  A    between atoms: _331  and  _333
REMARK  138  A    between atoms: _333  and  ZN_877
REMARK  139  A    between atoms: _334  and  _336
REMARK  140  A    between atoms: _336  and  _337
REMARK  141  A    between atoms: _336  and  _339
REMARK  142  A    between atoms: _339  and  _340
REMARK  143  A    between atoms: _342  and  _344
REMARK  144  A    between atoms: _344  and  _345
REMARK  145  A    between atoms: _344  and  _347
REMARK  146  A    between atoms: _347  and  _348
REMARK  147  A    between atoms: _350  and  _352
REMARK  148  A    between atoms: _352  and  _353
REMARK  149  A    between atoms: _352  and  _355
REMARK  150  A    between atoms: _355  and  _356
REMARK  151  A    between atoms: _359  and  _361
REMARK  152  A    between atoms: _361  and  _362
REMARK  153  A    between atoms: _361  and  _364
REMARK  154  A    between atoms: _364  and  _365
REMARK  155  A    between atoms: _365  and  _366
REMARK  156  A    between atoms: _369  and  _371
REMARK  157  A    between atoms: _371  and  _372
REMARK  158  A    between atoms: _371  and  _374
REMARK  159  A    between atoms: _374  and  _375
REMARK  160  A    between atoms: _380  and  _381
REMARK  161  A    between atoms: _383  and  _385
REMARK  162  A    between atoms: _385  and  _386
REMARK  163  A    between atoms: _385  and  _388
REMARK  164  A    between atoms: _388  and  _389
REMARK  165  A    between atoms: _392  and  _394
REMARK  166  A    between atoms: _394  and  _395
REMARK  167  A    between atoms: _394  and  _397
REMARK  168  A    between atoms: _397  and  _398
REMARK  169  A    between atoms: _401  and  _403
REMARK  170  A    between atoms: _403  and  _404
REMARK  171  A    between atoms: _403  and  _406
REMARK  172  A    between atoms: _406  and  _407
REMARK  173  A    between atoms: _407  and  _408
REMARK  174  A    between atoms: _408  and  _409
REMARK  175  A    between atoms: _418  and  _420
REMARK  176  A    between atoms: _420  and  _421
REMARK  177  A    between atoms: _420  and  _423
REMARK  178  A    between atoms: _426  and  _428
REMARK  179  A    between atoms: _428  and  _429
REMARK  180  A    between atoms: _428  and  _431
REMARK  181  A    between atoms: _431  and  _432
REMARK  182  A    between atoms: _435  and  _437
REMARK  183  A    between atoms: _437  and  _438
REMARK  184  A    between atoms: _437  and  _440
REMARK  185  A    between atoms: _440  and  _441
REMARK  186  A    between atoms: _451  and  _453
REMARK  187  A    between atoms: _453  and  _454
REMARK  188  A    between atoms: _453  and  _456
REMARK  189  A    between atoms: _456  and  _457
REMARK  190  A    between atoms: _457  and  _458
REMARK  191  A    between atoms: _458  and  _459
REMARK  192  A    between atoms: _459  and  _460
REMARK  193  A    between atoms: _464  and  _466
REMARK  194  A    between atoms: _466  and  _467
REMARK  195  A    between atoms: _466  and  _469
REMARK  196  A    between atoms: _469  and  _470
REMARK  197  A    between atoms: _473  and  _474
REMARK  198  A    between atoms: _479  and  _481
REMARK  199  A    between atoms: _481  and  _482
REMARK  200  A    between atoms: _481  and  _484
REMARK  201  A    between atoms: _484  and  _485
REMARK  202  A    between atoms: _485  and  _486
REMARK  203  A    between atoms: _486  and  _487
REMARK  204  A    between atoms: _496  and  _498
REMARK  205  A    between atoms: _498  and  _499
REMARK  206  A    between atoms: _498  and  _501
REMARK  207  A    between atoms: _501  and  _502
REMARK  208  A    between atoms: _505  and  _507
REMARK  209  A    between atoms: _507  and  _508
REMARK  210  A    between atoms: _507  and  _510
REMARK  211  A    between atoms: _510  and  _511
REMARK  212  A    between atoms: _513  and  _515
REMARK  213  A    between atoms: _515  and  _516
REMARK  214  A    between atoms: _515  and  _518
REMARK  215  A    between atoms: _518  and  _519
REMARK  216  A    between atoms: _519  and  _520
REMARK  217  A    between atoms: _520  and  _521
REMARK  218  A    between atoms: _521  and  _522
REMARK  219  A    between atoms: _526  and  _528
REMARK  220  A    between atoms: _528  and  _529
REMARK  221  A    between atoms: _528  and  _531
REMARK  222  A    between atoms: _531  and  _532
REMARK  223  A    between atoms: _535  and  _537
REMARK  224  A    between atoms: _537  and  _538
REMARK  225  A    between atoms: _540  and  _542
REMARK  226  A    between atoms: _542  and  _543
REMARK  227  A    between atoms: _542  and  _545
REMARK  228  A    between atoms: _545  and  _546
REMARK  229  A    between atoms: _548  and  _550
REMARK  230  A    between atoms: _550  and  _551
REMARK  231  A    between atoms: _553  and  _555
REMARK  232  A    between atoms: _555  and  _556
REMARK  233  A    between atoms: _555  and  _558
REMARK  234  A    between atoms: _558  and  _559
REMARK  235  A    between atoms: _564  and  _566
REMARK  236  A    between atoms: _566  and  _567
REMARK  237  A    between atoms: _566  and  _569
REMARK  238  A    between atoms: _569  and  _570
REMARK  239  A    between atoms: _573  and  _575
REMARK  240  A    between atoms: _575  and  _576
REMARK  241  A    between atoms: _575  and  _578
REMARK  242  A    between atoms: _578  and  _579
REMARK  243  A    between atoms: _585  and  _587
REMARK  244  A    between atoms: _587  and  _588
REMARK  245  A    between atoms: _587  and  _590
REMARK  246  A    between atoms: _590  and  _591
REMARK  247  A    between atoms: _591  and  _592
REMARK  248  A    between atoms: _595  and  _597
REMARK  249  A    between atoms: _597  and  _598
REMARK  250  A    between atoms: _597  and  _600
REMARK  251  A    between atoms: _600  and  _601
REMARK  252  A    between atoms: _601  and  _602
REMARK  253  A    between atoms: _602  and  _603
REMARK  254  A    between atoms: _612  and  _614
REMARK  255  A    between atoms: _614  and  _615
REMARK  256  A    between atoms: _614  and  _617
REMARK  257  A    between atoms: _617  and  _618
REMARK  258  A    between atoms: _618  and  _619
REMARK  259  A    between atoms: _619  and  _620
REMARK  260  A    between atoms: _629  and  _631
REMARK  261  A    between atoms: _631  and  _632
REMARK  262  A    between atoms: _631  and  _634
REMARK  263  A    between atoms: _634  and  _635
REMARK  264  A    between atoms: _640  and  _641
REMARK  265  A    between atoms: _643  and  _645
REMARK  266  A    between atoms: _645  and  _646
REMARK  267  A    between atoms: _645  and  _648
REMARK  268  A    between atoms: _648  and  _649
REMARK  269  A    between atoms: _652  and  _654
REMARK  270  A    between atoms: _654  and  _655
REMARK  271  A    between atoms: _654  and  _657
REMARK  272  A    between atoms: _657  and  _658
REMARK  273  A    between atoms: _658  and  _659
REMARK  274  A    between atoms: _659  and  _660
REMARK  275  A    between atoms: _660  and  _661
REMARK  276  A    between atoms: _665  and  _667
REMARK  277  A    between atoms: _667  and  _668
REMARK  278  A    between atoms: _667  and  _670
REMARK  279  A    between atoms: _670  and  _671
REMARK  280  A    between atoms: _676  and  _678
REMARK  281  A    between atoms: _678  and  _679
REMARK  282  A    between atoms: _678  and  _681
REMARK  283  A    between atoms: _681  and  _682
REMARK  284  A    between atoms: _692  and  _694
REMARK  285  A    between atoms: _694  and  _695
REMARK  286  A    between atoms: _694  and  _697
REMARK  287  A    between atoms: _697  and  _698
REMARK  288  A    between atoms: _698  and  _699
REMARK  289  A    between atoms: _702  and  _704
REMARK  290  A    between atoms: _704  and  _705
REMARK  291  A    between atoms: _704  and  _707
REMARK  292  A    between atoms: _707  and  _708
REMARK  293  A    between atoms: _711  and  _713
REMARK  294  A    between atoms: _713  and  _714
REMARK  295  A    between atoms: _713  and  _716
REMARK  296  A    between atoms: _716  and  _717
REMARK  297  A    between atoms: _722  and  _724
REMARK  298  A    between atoms: _724  and  _725
REMARK  299  A    between atoms: _724  and  _727
REMARK  300  A    between atoms: _727  and  _728
REMARK  301  A    between atoms: _734  and  _736
REMARK  302  A    between atoms: _736  and  _737
REMARK  303  A    between atoms: _736  and  _739
REMARK  304  A    between atoms: _739  and  _740
REMARK  305  A    between atoms: _742  and  _744
REMARK  306  A    between atoms: _744  and  _745
REMARK  307  A    between atoms: _747  and  _749
REMARK  308  A    between atoms: _749  and  _750
REMARK  309  A    between atoms: _749  and  _752
REMARK  310  A    between atoms: _752  and  _753
REMARK  311  A    between atoms: _758  and  _759
REMARK  312  A    between atoms: _761  and  _763
REMARK  313  A    between atoms: _763  and  _764
REMARK  314  A    between atoms: _763  and  _766
REMARK  315  A    between atoms: _766  and  _767
REMARK  316  A    between atoms: _772  and  _773
REMARK  317  A    between atoms: _775  and  _777
REMARK  318  A    between atoms: _777  and  _778
REMARK  319  A    between atoms: _777  and  _780
REMARK  320  A    between atoms: _780  and  _781
REMARK  321  A    between atoms: _785  and  ZN_876
REMARK  322  A    between atoms: _786  and  _788
REMARK  323  A    between atoms: _788  and  _789
REMARK  324  A    between atoms: _788  and  _791
REMARK  325  A    between atoms: _791  and  _792
REMARK  326  A    between atoms: _792  and  _793
REMARK  327  A    between atoms: _796  and  _798
REMARK  328  A    between atoms: _798  and  _799
REMARK  329  A    between atoms: _798  and  _801
REMARK  330  A    between atoms: _801  and  _802
REMARK  331  A    between atoms: _802  and  _803
REMARK  332  A    between atoms: _803  and  _804
REMARK  333  A    between atoms: _813  and  _815
REMARK  334  A    between atoms: _815  and  _816
REMARK  335  A    between atoms: _815  and  _818
REMARK  336  A    between atoms: _818  and  _819
REMARK  337  A    between atoms: _824  and  _825
REMARK  338  A    between atoms: _827  and  _829
REMARK  339  A    between atoms: _829  and  _830
REMARK  340  A    between atoms: _829  and  _832
REMARK  341  A    between atoms: _832  and  _833
REMARK  342  A    between atoms: _838  and  _840
REMARK  343  A    between atoms: _840  and  _841
REMARK  344  A    between atoms: _840  and  _843
REMARK  345  A    between atoms: _843  and  _844
REMARK  346  A    between atoms: _844  and  _845
REMARK  347  A    between atoms: _845  and  _846
REMARK  348  A    between atoms: _846  and  _847
REMARK  349  A    between atoms: _851  and  _853
REMARK  350  A    between atoms: _853  and  _854
REMARK  351  A    between atoms: _853  and  _856
REMARK  352  A    between atoms: _856  and  _857
REMARK  353  A    between atoms: _862  and  _863
REMARK  354  A    between atoms: _865  and  _867
REMARK  355  A    between atoms: _867  and  _868
REMARK  356  A    between atoms: _871  and  _873
REMARK  357  A    between atoms: _873  and  _874
REMARK                            x       y       z     vdW  Elec       q    Type
REMARK                         _______ _______ _______ _____ _____    ______ ____
ROOT
ATOM      1  O   HOH     1      28.822  57.291  48.060  0.00  0.00    +0.000 OA
ENDROOT
TORSDOF 0
REMARK  Name = ../refined-set-2016/2xei/2xei_pocket.pdb
REMARK  357 active torsions:
REMARK  status: ('A' for Active; 'I' for Inactive)
REMARK    1  A    between atoms: _1  and  _3
REMARK    2  A    between atoms: _3  and  _4
REMARK    3  A    between atoms: _7  and  _9
REMARK    4  A    between atoms: _9  and  _10
REMARK    5  A    between atoms: _9  and  _12
REMARK    6  A    between atoms: _12  and  _13
REMARK    7  A    between atoms: _19  and  _21
REMARK    8  A    between atoms: _21  and  _22
REMARK    9  A    between atoms: _24  and  _26
REMARK   10  A    between atoms: _26  and  _27
REMARK   11  A    between atoms: _26  and  _29
REMARK   12  A    between atoms: _29  and  _30
REMARK   13  A    between atoms: _30  and  _31
REMARK   14  A    between atoms: _31  and  _32
REMARK   15  A    between atoms: _32  and  _33
REMARK   16  A    between atoms: _37  and  _39
REMARK   17  A    between atoms: _39  and  _40
REMARK   18  A    between atoms: _39  and  _42
REMARK   19  A    between atoms: _45  and  _47
REMARK   20  A    between atoms: _47  and  _48
REMARK   21  A    between atoms: _47  and  _50
REMARK   22  A    between atoms: _50  and  _51
REMARK   23  A    between atoms: _57  and  _59
REMARK   24  A    between atoms: _59  and  _60
REMARK   25  A    between atoms: _59  and  _62
REMARK   26  A    between atoms: _62  and  _63
REMARK   27  A    between atoms: _63  and  _64
REMARK   28  A    between atoms: _64  and  _65
REMARK   29  A    between atoms: _74  and  _76
REMARK   30  A    between atoms: _76  and  _77
REMARK   31  A    between atoms: _79  and  _81
REMARK   32  A    between atoms: _81  and  _82
REMARK   33  A    between atoms: _81  and  _84
REMARK   34  A    between atoms: _84  and  _85
REMARK   35  A    between atoms: _90  and  _91
REMARK   36  A    between atoms: _93  and  _95
REMARK   37  A    between atoms: _95  and  _96
REMARK   38  A    between atoms: _95  and  _98
REMARK   39  A    between atoms: _98  and  _99
REMARK   40  A    between atoms: _99  and  _100
REMARK   41  A    between atoms: _105  and  _107
REMARK   42  A    between atoms: _107  and  _108
REMARK   43  A    between atoms: _107  and  _110
REMARK   44  A    between atoms: _110  and  _111
REMARK   45  A    between atoms: _111  and  _112
REMARK   46  A    between atoms: _112  and  _113
REMARK   47  A    between atoms: _122  and  _124
REMARK   48  A    between atoms: _124  and  _125
REMARK   49  A    between atoms: _127  and  _129
REMARK   50  A    between atoms: _129  and  _130
REMARK   51  A    between atoms: _129  and  _132
REMARK   52  A    between atoms: _132  and  _133
REMARK   53  A    between atoms: _138  and  _140
REMARK   54  A    between atoms: _140  and  _141
REMARK   55  A    between atoms: _140  and  _143
REMARK   56  A    between atoms: _143  and  _144
REMARK   57  A    between atoms: _147  and  _149
REMARK   58  A    between atoms: _149  and  _150
REMARK   59  A    between atoms: _149  and  _152
REMARK   60  A    between atoms: _152  and  _153
REMARK   61  A    between atoms: _156  and  _158
REMARK   62  A    between atoms: _158  and  _159
REMARK   63  A    between atoms: _158  and  _161
REMARK   64  A    between atoms: _161  and  _162
REMARK   65  A    between atoms: _167  and  _169
REMARK   66  A    between atoms: _169  and  _170
REMARK   67  A    between atoms: _169  and  _172
REMARK   68  A    between atoms: _172  and  _173
REMARK   69  A    between atoms: _176  and  _178
REMARK   70  A    between atoms: _178  and  _179
REMARK   71  A    between atoms: _178  and  _181
REMARK   72  A    between atoms: _181  and  _182
REMARK   73  A    between atoms: _187  and  _189
REMARK   74  A    between atoms: _189  and  _190
REMARK   75  A    between atoms: _192  and  _194
REMARK   76  A    between atoms: _194  and  _195
REMARK   77  A    between atoms: _194  and  _197
REMARK   78  A    between atoms: _197  and  _198
REMARK   79  A    between atoms: _202  and  ZN_877
REMARK   80  A    between atoms: _203  and  _205
REMARK   81  A    between atoms: _205  and  _206
REMARK   82  A    between atoms: _205  and  _208
REMARK   83  A    between atoms: _208  and  _209
REMARK   84  A    between atoms: _212  and  _214
REMARK   85  A    between atoms: _214  and  _215
REMARK   86  A    between atoms: _214  and  _217
REMARK   87  A    between atoms: _217  and  _218
REMARK   88  A    between atoms: _228  and  _230
REMARK   89  A    between atoms: _230  and  _231
REMARK   90  A    between atoms: _230  and  _233
REMARK   91  A    between atoms: _233  and  _234
REMARK   92  A    between atoms: _237  and  _239
REMARK   93  A    between atoms: _239  and  _240
REMARK   94  A    between atoms: _239  and  _242
REMARK   95  A    between atoms: _242  and  _243
REMARK   96  A    between atoms: _243  and  _244
REMARK   97  A    between atoms: _243  and  _245
REMARK   98  A    between atoms: _244  and  ZN_877
REMARK   99  A    between atoms: _245  and  ZN_876
REMARK  100  A    between atoms: _247  and  _248
REMARK  101  A    between atoms: _253  and  _255
REMARK  102  A    between atoms: _255  and  _256
REMARK  103  A    between atoms: _259  and  _261
REMARK  104  A    between atoms: _261  and  _262
REMARK  105  A    between atoms: _261  and  _264
REMARK  106  A    between atoms: _264  and  _265
REMARK  107  A    between atoms: _265  and  _266
REMARK  108  A    between atoms: _269  and  _271
REMARK  109  A    between atoms: _271  and  _272
REMARK  110  A    between atoms: _271  and  _274
REMARK  111  A    between atoms: _274  and  _275
REMARK  112  A    between atoms: _275  and  _276
REMARK  113  A    between atoms: _276  and  _278
REMARK  114  A    between atoms: _278  and  ZN_876
REMARK  115  A    between atoms: _279  and  _281
REMARK  116  A    between atoms: _281  and  _282
REMARK  117  A    between atoms: _281  and  _284
REMARK  118  A    between atoms: _284  and  _285
REMARK  119  A    between atoms: _291  and  _293
REMARK  120  A    between atoms: _293  and  _294
REMARK  121  A    between atoms: _296  and  _298
REMARK  122  A    between atoms: _298  and  _299
REMARK  123  A    between atoms: _298  and  _301
REMARK  124  A    between atoms: _301  and  _302
REMARK  125  A    between atoms: _305  and  _307
REMARK  126  A    between atoms: _307  and  _308
REMARK  127  A    between atoms: _307  and  _310
REMARK  128  A    between atoms: _310  and  _311
REMARK  129  A    between atoms: _314  and  _316
REMARK  130  A    between atoms: _316  and  _317
REMARK  131  A    between atoms: _316  and  _319
REMARK  132  A    between atoms: _319  and  _320
REMARK  133  A    between atoms: _325  and  _327
REMARK  134  A    between atoms: _327  and  _328
REMARK  135  A    between atoms: _327  and  _330
REMARK  136  A    between atoms: _330  and  _331
REMARK  137  A    between atoms: _331  and  _333
REMARK  138  A    between atoms: _333  and  ZN_877
REMARK  139  A    between atoms: _334  and  _336
REMARK  140  A    between atoms: _336  and  _337
REMARK  141  A    between atoms: _336  and  _339
REMARK  142  A    between atoms: _339  and  _340
REMARK  143  A    between atoms: _342  and  _344
REMARK  144  A    between atoms: _344  and  _345
REMARK  145  A    between atoms: _344  and  _347
REMARK  146  A    between atoms: _347  and  _348
REMARK  147  A    between atoms: _350  and  _352
REMARK  148  A    between atoms: _352  and  _353
REMARK  149  A    between atoms: _352  and  _355
REMARK  150  A    between atoms: _355  and  _356
REMARK  151  A    between atoms: _359  and  _361
REMARK  152  A    between atoms: _361  and  _362
REMARK  153  A    between atoms: _361  and  _364
REMARK  154  A    between atoms: _364  and  _365
REMARK  155  A    between atoms: _365  and  _366
REMARK  156  A    between atoms: _369  and  _371
REMARK  157  A    between atoms: _371  and  _372
REMARK  158  A    between atoms: _371  and  _374
REMARK  159  A    between atoms: _374  and  _375
REMARK  160  A    between atoms: _380  and  _381
REMARK  161  A    between atoms: _383  and  _385
REMARK  162  A    between atoms: _385  and  _386
REMARK  163  A    between atoms: _385  and  _388
REMARK  164  A    between atoms: _388  and  _389
REMARK  165  A    between atoms: _392  and  _394
REMARK  166  A    between atoms: _394  and  _395
REMARK  167  A    between atoms: _394  and  _397
REMARK  168  A    between atoms: _397  and  _398
REMARK  169  A    between atoms: _401  and  _403
REMARK  170  A    between atoms: _403  and  _404
REMARK  171  A    between atoms: _403  and  _406
REMARK  172  A    between atoms: _406  and  _407
REMARK  173  A    between atoms: _407  and  _408
REMARK  174  A    between atoms: _408  and  _409
REMARK  175  A    between atoms: _418  and  _420
REMARK  176  A    between atoms: _420  and  _421
REMARK  177  A    between atoms: _420  and  _423
REMARK  178  A    between atoms: _426  and  _428
REMARK  179  A    between atoms: _428  and  _429
REMARK  180  A    between atoms: _428  and  _431
REMARK  181  A    between atoms: _431  and  _432
REMARK  182  A    between atoms: _435  and  _437
REMARK  183  A    between atoms: _437  and  _438
REMARK  184  A    between atoms: _437  and  _440
REMARK  185  A    between atoms: _440  and  _441
REMARK  186  A    between atoms: _451  and  _453
REMARK  187  A    between atoms: _453  and  _454
REMARK  188  A    between atoms: _453  and  _456
REMARK  189  A    between atoms: _456  and  _457
REMARK  190  A    between atoms: _457  and  _458
REMARK  191  A    between atoms: _458  and  _459
REMARK  192  A    between atoms: _459  and  _460
REMARK  193  A    between atoms: _464  and  _466
REMARK  194  A    between atoms: _466  and  _467
REMARK  195  A    between atoms: _466  and  _469
REMARK  196  A    between atoms: _469  and  _470
REMARK  197  A    between atoms: _473  and  _474
REMARK  198  A    between atoms: _479  and  _481
REMARK  199  A    between atoms: _481  and  _482
REMARK  200  A    between atoms: _481  and  _484
REMARK  201  A    between atoms: _484  and  _485
REMARK  202  A    between atoms: _485  and  _486
REMARK  203  A    between atoms: _486  and  _487
REMARK  204  A    between atoms: _496  and  _498
REMARK  205  A    between atoms: _498  and  _499
REMARK  206  A    between atoms: _498  and  _501
REMARK  207  A    between atoms: _501  and  _502
REMARK  208  A    between atoms: _505  and  _507
REMARK  209  A    between atoms: _507  and  _508
REMARK  210  A    between atoms: _507  and  _510
REMARK  211  A    between atoms: _510  and  _511
REMARK  212  A    between atoms: _513  and  _515
REMARK  213  A    between atoms: _515  and  _516
REMARK  214  A    between atoms: _515  and  _518
REMARK  215  A    between atoms: _518  and  _519
REMARK  216  A    between atoms: _519  and  _520
REMARK  217  A    between atoms: _520  and  _521
REMARK  218  A    between atoms: _521  and  _522
REMARK  219  A    between atoms: _526  and  _528
REMARK  220  A    between atoms: _528  and  _529
REMARK  221  A    between atoms: _528  and  _531
REMARK  222  A    between atoms: _531  and  _532
REMARK  223  A    between atoms: _535  and  _537
REMARK  224  A    between atoms: _537  and  _538
REMARK  225  A    between atoms: _540  and  _542
REMARK  226  A    between atoms: _542  and  _543
REMARK  227  A    between atoms: _542  and  _545
REMARK  228  A    between atoms: _545  and  _546
REMARK  229  A    between atoms: _548  and  _550
REMARK  230  A    between atoms: _550  and  _551
REMARK  231  A    between atoms: _553  and  _555
REMARK  232  A    between atoms: _555  and  _556
REMARK  233  A    between atoms: _555  and  _558
REMARK  234  A    between atoms: _558  and  _559
REMARK  235  A    between atoms: _564  and  _566
REMARK  236  A    between atoms: _566  and  _567
REMARK  237  A    between atoms: _566  and  _569
REMARK  238  A    between atoms: _569  and  _570
REMARK  239  A    between atoms: _573  and  _575
REMARK  240  A    between atoms: _575  and  _576
REMARK  241  A    between atoms: _575  and  _578
REMARK  242  A    between atoms: _578  and  _579
REMARK  243  A    between atoms: _585  and  _587
REMARK  244  A    between atoms: _587  and  _588
REMARK  245  A    between atoms: _587  and  _590
REMARK  246  A    between atoms: _590  and  _591
REMARK  247  A    between atoms: _591  and  _592
REMARK  248  A    between atoms: _595  and  _597
REMARK  249  A    between atoms: _597  and  _598
REMARK  250  A    between atoms: _597  and  _600
REMARK  251  A    between atoms: _600  and  _601
REMARK  252  A    between atoms: _601  and  _602
REMARK  253  A    between atoms: _602  and  _603
REMARK  254  A    between atoms: _612  and  _614
REMARK  255  A    between atoms: _614  and  _615
REMARK  256  A    between atoms: _614  and  _617
REMARK  257  A    between atoms: _617  and  _618
REMARK  258  A    between atoms: _618  and  _619
REMARK  259  A    between atoms: _619  and  _620
REMARK  260  A    between atoms: _629  and  _631
REMARK  261  A    between atoms: _631  and  _632
REMARK  262  A    between atoms: _631  and  _634
REMARK  263  A    between atoms: _634  and  _635
REMARK  264  A    between atoms: _640  and  _641
REMARK  265  A    between atoms: _643  and  _645
REMARK  266  A    between atoms: _645  and  _646
REMARK  267  A    between atoms: _645  and  _648
REMARK  268  A    between atoms: _648  and  _649
REMARK  269  A    between atoms: _652  and  _654
REMARK  270  A    between atoms: _654  and  _655
REMARK  271  A    between atoms: _654  and  _657
REMARK  272  A    between atoms: _657  and  _658
REMARK  273  A    between atoms: _658  and  _659
REMARK  274  A    between atoms: _659  and  _660
REMARK  275  A    between atoms: _660  and  _661
REMARK  276  A    between atoms: _665  and  _667
REMARK  277  A    between atoms: _667  and  _668
REMARK  278  A    between atoms: _667  and  _670
REMARK  279  A    between atoms: _670  and  _671
REMARK  280  A    between atoms: _676  and  _678
REMARK  281  A    between atoms: _678  and  _679
REMARK  282  A    between atoms: _678  and  _681
REMARK  283  A    between atoms: _681  and  _682
REMARK  284  A    between atoms: _692  and  _694
REMARK  285  A    between atoms: _694  and  _695
REMARK  286  A    between atoms: _694  and  _697
REMARK  287  A    between atoms: _697  and  _698
REMARK  288  A    between atoms: _698  and  _699
REMARK  289  A    between atoms: _702  and  _704
REMARK  290  A    between atoms: _704  and  _705
REMARK  291  A    between atoms: _704  and  _707
REMARK  292  A    between atoms: _707  and  _708
REMARK  293  A    between atoms: _711  and  _713
REMARK  294  A    between atoms: _713  and  _714
REMARK  295  A    between atoms: _713  and  _716
REMARK  296  A    between atoms: _716  and  _717
REMARK  297  A    between atoms: _722  and  _724
REMARK  298  A    between atoms: _724  and  _725
REMARK  299  A    between atoms: _724  and  _727
REMARK  300  A    between atoms: _727  and  _728
REMARK  301  A    between atoms: _734  and  _736
REMARK  302  A    between atoms: _736  and  _737
REMARK  303  A    between atoms: _736  and  _739
REMARK  304  A    between atoms: _739  and  _740
REMARK  305  A    between atoms: _742  and  _744
REMARK  306  A    between atoms: _744  and  _745
REMARK  307  A    between atoms: _747  and  _749
REMARK  308  A    between atoms: _749  and  _750
REMARK  309  A    between atoms: _749  and  _752
REMARK  310  A    between atoms: _752  and  _753
REMARK  311  A    between atoms: _758  and  _759
REMARK  312  A    between atoms: _761  and  _763
REMARK  313  A    between atoms: _763  and  _764
REMARK  314  A    between atoms: _763  and  _766
REMARK  315  A    between atoms: _766  and  _767
REMARK  316  A    between atoms: _772  and  _773
REMARK  317  A    between atoms: _775  and  _777
REMARK  318  A    between atoms: _777  and  _778
REMARK  319  A    between atoms: _777  and  _780
REMARK  320  A    between atoms: _780  and  _781
REMARK  321  A    between atoms: _785  and  ZN_876
REMARK  322  A    between atoms: _786  and  _788
REMARK  323  A    between atoms: _788  and  _789
REMARK  324  A    between atoms: _788  and  _791
REMARK  325  A    between atoms: _791  and  _792
REMARK  326  A    between atoms: _792  and  _793
REMARK  327  A    between atoms: _796  and  _798
REMARK  328  A    between atoms: _798  and  _799
REMARK  329  A    between atoms: _798  and  _801
REMARK  330  A    between atoms: _801  and  _802
REMARK  331  A    between atoms: _802  and  _803
REMARK  332  A    between atoms: _803  and  _804
REMARK  333  A    between atoms: _813  and  _815
REMARK  334  A    between atoms: _815  and  _816
REMARK  335  A    between atoms: _815  and  _818
REMARK  336  A    between atoms: _818  and  _819
REMARK  337  A    between atoms: _824  and  _825
REMARK  338  A    between atoms: _827  and  _829
REMARK  339  A    between atoms: _829  and  _830
REMARK  340  A    between atoms: _829  and  _832
REMARK  341  A    between atoms: _832  and  _833
REMARK  342  A    between atoms: _838  and  _840
REMARK  343  A    between atoms: _840  and  _841
REMARK  344  A    between atoms: _840  and  _843
REMARK  345  A    between atoms: _843  and  _844
REMARK  346  A    between atoms: _844  and  _845
REMARK  347  A    between atoms: _845  and  _846
REMARK  348  A    between atoms: _846  and  _847
REMARK  349  A    between atoms: _851  and  _853
REMARK  350  A    between atoms: _853  and  _854
REMARK  351  A    between atoms: _853  and  _856
REMARK  352  A    between atoms: _856  and  _857
REMARK  353  A    between atoms: _862  and  _863
REMARK  354  A    between atoms: _865  and  _867
REMARK  355  A    between atoms: _867  and  _868
REMARK  356  A    between atoms: _871  and  _873
REMARK  357  A    between atoms: _873  and  _874
REMARK                            x       y       z     vdW  Elec       q    Type
REMARK                         _______ _______ _______ _____ _____    ______ ____
ROOT
ATOM      1  O   HOH     1      25.915  58.206  46.091  0.00  0.00    +0.000 OA
ENDROOT
TORSDOF 0
REMARK  Name = ../refined-set-2016/2xei/2xei_pocket.pdb
REMARK  357 active torsions:
REMARK  status: ('A' for Active; 'I' for Inactive)
REMARK    1  A    between atoms: _1  and  _3
REMARK    2  A    between atoms: _3  and  _4
REMARK    3  A    between atoms: _7  and  _9
REMARK    4  A    between atoms: _9  and  _10
REMARK    5  A    between atoms: _9  and  _12
REMARK    6  A    between atoms: _12  and  _13
REMARK    7  A    between atoms: _19  and  _21
REMARK    8  A    between atoms: _21  and  _22
REMARK    9  A    between atoms: _24  and  _26
REMARK   10  A    between atoms: _26  and  _27
REMARK   11  A    between atoms: _26  and  _29
REMARK   12  A    between atoms: _29  and  _30
REMARK   13  A    between atoms: _30  and  _31
REMARK   14  A    between atoms: _31  and  _32
REMARK   15  A    between atoms: _32  and  _33
REMARK   16  A    between atoms: _37  and  _39
REMARK   17  A    between atoms: _39  and  _40
REMARK   18  A    between atoms: _39  and  _42
REMARK   19  A    between atoms: _45  and  _47
REMARK   20  A    between atoms: _47  and  _48
REMARK   21  A    between atoms: _47  and  _50
REMARK   22  A    between atoms: _50  and  _51
REMARK   23  A    between atoms: _57  and  _59
REMARK   24  A    between atoms: _59  and  _60
REMARK   25  A    between atoms: _59  and  _62
REMARK   26  A    between atoms: _62  and  _63
REMARK   27  A    between atoms: _63  and  _64
REMARK   28  A    between atoms: _64  and  _65
REMARK   29  A    between atoms: _74  and  _76
REMARK   30  A    between atoms: _76  and  _77
REMARK   31  A    between atoms: _79  and  _81
REMARK   32  A    between atoms: _81  and  _82
REMARK   33  A    between atoms: _81  and  _84
REMARK   34  A    between atoms: _84  and  _85
REMARK   35  A    between atoms: _90  and  _91
REMARK   36  A    between atoms: _93  and  _95
REMARK   37  A    between atoms: _95  and  _96
REMARK   38  A    between atoms: _95  and  _98
REMARK   39  A    between atoms: _98  and  _99
REMARK   40  A    between atoms: _99  and  _100
REMARK   41  A    between atoms: _105  and  _107
REMARK   42  A    between atoms: _107  and  _108
REMARK   43  A    between atoms: _107  and  _110
REMARK   44  A    between atoms: _110  and  _111
REMARK   45  A    between atoms: _111  and  _112
REMARK   46  A    between atoms: _112  and  _113
REMARK   47  A    between atoms: _122  and  _124
REMARK   48  A    between atoms: _124  and  _125
REMARK   49  A    between atoms: _127  and  _129
REMARK   50  A    between atoms: _129  and  _130
REMARK   51  A    between atoms: _129  and  _132
REMARK   52  A    between atoms: _132  and  _133
REMARK   53  A    between atoms: _138  and  _140
REMARK   54  A    between atoms: _140  and  _141
REMARK   55  A    between atoms: _140  and  _143
REMARK   56  A    between atoms: _143  and  _144
REMARK   57  A    between atoms: _147  and  _149
REMARK   58  A    between atoms: _149  and  _150
REMARK   59  A    between atoms: _149  and  _152
REMARK   60  A    between atoms: _152  and  _153
REMARK   61  A    between atoms: _156  and  _158
REMARK   62  A    between atoms: _158  and  _159
REMARK   63  A    between atoms: _158  and  _161
REMARK   64  A    between atoms: _161  and  _162
REMARK   65  A    between atoms: _167  and  _169
REMARK   66  A    between atoms: _169  and  _170
REMARK   67  A    between atoms: _169  and  _172
REMARK   68  A    between atoms: _172  and  _173
REMARK   69  A    between atoms: _176  and  _178
REMARK   70  A    between atoms: _178  and  _179
REMARK   71  A    between atoms: _178  and  _181
REMARK   72  A    between atoms: _181  and  _182
REMARK   73  A    between atoms: _187  and  _189
REMARK   74  A    between atoms: _189  and  _190
REMARK   75  A    between atoms: _192  and  _194
REMARK   76  A    between atoms: _194  and  _195
REMARK   77  A    between atoms: _194  and  _197
REMARK   78  A    between atoms: _197  and  _198
REMARK   79  A    between atoms: _202  and  ZN_877
REMARK   80  A    between atoms: _203  and  _205
REMARK   81  A    between atoms: _205  and  _206
REMARK   82  A    between atoms: _205  and  _208
REMARK   83  A    between atoms: _208  and  _209
REMARK   84  A    between atoms: _212  and  _214
REMARK   85  A    between atoms: _214  and  _215
REMARK   86  A    between atoms: _214  and  _217
REMARK   87  A    between atoms: _217  and  _218
REMARK   88  A    between atoms: _228  and  _230
REMARK   89  A    between atoms: _230  and  _231
REMARK   90  A    between atoms: _230  and  _233
REMARK   91  A    between atoms: _233  and  _234
REMARK   92  A    between atoms: _237  and  _239
REMARK   93  A    between atoms: _239  and  _240
REMARK   94  A    between atoms: _239  and  _242
REMARK   95  A    between atoms: _242  and  _243
REMARK   96  A    between atoms: _243  and  _244
REMARK   97  A    between atoms: _243  and  _245
REMARK   98  A    between atoms: _244  and  ZN_877
REMARK   99  A    between atoms: _245  and  ZN_876
REMARK  100  A    between atoms: _247  and  _248
REMARK  101  A    between atoms: _253  and  _255
REMARK  102  A    between atoms: _255  and  _256
REMARK  103  A    between atoms: _259  and  _261
REMARK  104  A    between atoms: _261  and  _262
REMARK  105  A    between atoms: _261  and  _264
REMARK  106  A    between atoms: _264  and  _265
REMARK  107  A    between atoms: _265  and  _266
REMARK  108  A    between atoms: _269  and  _271
REMARK  109  A    between atoms: _271  and  _272
REMARK  110  A    between atoms: _271  and  _274
REMARK  111  A    between atoms: _274  and  _275
REMARK  112  A    between atoms: _275  and  _276
REMARK  113  A    between atoms: _276  and  _278
REMARK  114  A    between atoms: _278  and  ZN_876
REMARK  115  A    between atoms: _279  and  _281
REMARK  116  A    between atoms: _281  and  _282
REMARK  117  A    between atoms: _281  and  _284
REMARK  118  A    between atoms: _284  and  _285
REMARK  119  A    between atoms: _291  and  _293
REMARK  120  A    between atoms: _293  and  _294
REMARK  121  A    between atoms: _296  and  _298
REMARK  122  A    between atoms: _298  and  _299
REMARK  123  A    between atoms: _298  and  _301
REMARK  124  A    between atoms: _301  and  _302
REMARK  125  A    between atoms: _305  and  _307
REMARK  126  A    between atoms: _307  and  _308
REMARK  127  A    between atoms: _307  and  _310
REMARK  128  A    between atoms: _310  and  _311
REMARK  129  A    between atoms: _314  and  _316
REMARK  130  A    between atoms: _316  and  _317
REMARK  131  A    between atoms: _316  and  _319
REMARK  132  A    between atoms: _319  and  _320
REMARK  133  A    between atoms: _325  and  _327
REMARK  134  A    between atoms: _327  and  _328
REMARK  135  A    between atoms: _327  and  _330
REMARK  136  A    between atoms: _330  and  _331
REMARK  137  A    between atoms: _331  and  _333
REMARK  138  A    between atoms: _333  and  ZN_877
REMARK  139  A    between atoms: _334  and  _336
REMARK  140  A    between atoms: _336  and  _337
REMARK  141  A    between atoms: _336  and  _339
REMARK  142  A    between atoms: _339  and  _340
REMARK  143  A    between atoms: _342  and  _344
REMARK  144  A    between atoms: _344  and  _345
REMARK  145  A    between atoms: _344  and  _347
REMARK  146  A    between atoms: _347  and  _348
REMARK  147  A    between atoms: _350  and  _352
REMARK  148  A    between atoms: _352  and  _353
REMARK  149  A    between atoms: _352  and  _355
REMARK  150  A    between atoms: _355  and  _356
REMARK  151  A    between atoms: _359  and  _361
REMARK  152  A    between atoms: _361  and  _362
REMARK  153  A    between atoms: _361  and  _364
REMARK  154  A    between atoms: _364  and  _365
REMARK  155  A    between atoms: _365  and  _366
REMARK  156  A    between atoms: _369  and  _371
REMARK  157  A    between atoms: _371  and  _372
REMARK  158  A    between atoms: _371  and  _374
REMARK  159  A    between atoms: _374  and  _375
REMARK  160  A    between atoms: _380  and  _381
REMARK  161  A    between atoms: _383  and  _385
REMARK  162  A    between atoms: _385  and  _386
REMARK  163  A    between atoms: _385  and  _388
REMARK  164  A    between atoms: _388  and  _389
REMARK  165  A    between atoms: _392  and  _394
REMARK  166  A    between atoms: _394  and  _395
REMARK  167  A    between atoms: _394  and  _397
REMARK  168  A    between atoms: _397  and  _398
REMARK  169  A    between atoms: _401  and  _403
REMARK  170  A    between atoms: _403  and  _404
REMARK  171  A    between atoms: _403  and  _406
REMARK  172  A    between atoms: _406  and  _407
REMARK  173  A    between atoms: _407  and  _408
REMARK  174  A    between atoms: _408  and  _409
REMARK  175  A    between atoms: _418  and  _420
REMARK  176  A    between atoms: _420  and  _421
REMARK  177  A    between atoms: _420  and  _423
REMARK  178  A    between atoms: _426  and  _428
REMARK  179  A    between atoms: _428  and  _429
REMARK  180  A    between atoms: _428  and  _431
REMARK  181  A    between atoms: _431  and  _432
REMARK  182  A    between atoms: _435  and  _437
REMARK  183  A    between atoms: _437  and  _438
REMARK  184  A    between atoms: _437  and  _440
REMARK  185  A    between atoms: _440  and  _441
REMARK  186  A    between atoms: _451  and  _453
REMARK  187  A    between atoms: _453  and  _454
REMARK  188  A    between atoms: _453  and  _456
REMARK  189  A    between atoms: _456  and  _457
REMARK  190  A    between atoms: _457  and  _458
REMARK  191  A    between atoms: _458  and  _459
REMARK  192  A    between atoms: _459  and  _460
REMARK  193  A    between atoms: _464  and  _466
REMARK  194  A    between atoms: _466  and  _467
REMARK  195  A    between atoms: _466  and  _469
REMARK  196  A    between atoms: _469  and  _470
REMARK  197  A    between atoms: _473  and  _474
REMARK  198  A    between atoms: _479  and  _481
REMARK  199  A    between atoms: _481  and  _482
REMARK  200  A    between atoms: _481  and  _484
REMARK  201  A    between atoms: _484  and  _485
REMARK  202  A    between atoms: _485  and  _486
REMARK  203  A    between atoms: _486  and  _487
REMARK  204  A    between atoms: _496  and  _498
REMARK  205  A    between atoms: _498  and  _499
REMARK  206  A    between atoms: _498  and  _501
REMARK  207  A    between atoms: _501  and  _502
REMARK  208  A    between atoms: _505  and  _507
REMARK  209  A    between atoms: _507  and  _508
REMARK  210  A    between atoms: _507  and  _510
REMARK  211  A    between atoms: _510  and  _511
REMARK  212  A    between atoms: _513  and  _515
REMARK  213  A    between atoms: _515  and  _516
REMARK  214  A    between atoms: _515  and  _518
REMARK  215  A    between atoms: _518  and  _519
REMARK  216  A    between atoms: _519  and  _520
REMARK  217  A    between atoms: _520  and  _521
REMARK  218  A    between atoms: _521  and  _522
REMARK  219  A    between atoms: _526  and  _528
REMARK  220  A    between atoms: _528  and  _529
REMARK  221  A    between atoms: _528  and  _531
REMARK  222  A    between atoms: _531  and  _532
REMARK  223  A    between atoms: _535  and  _537
REMARK  224  A    between atoms: _537  and  _538
REMARK  225  A    between atoms: _540  and  _542
REMARK  226  A    between atoms: _542  and  _543
REMARK  227  A    between atoms: _542  and  _545
REMARK  228  A    between atoms: _545  and  _546
REMARK  229  A    between atoms: _548  and  _550
REMARK  230  A    between atoms: _550  and  _551
REMARK  231  A    between atoms: _553  and  _555
REMARK  232  A    between atoms: _555  and  _556
REMARK  233  A    between atoms: _555  and  _558
REMARK  234  A    between atoms: _558  and  _559
REMARK  235  A    between atoms: _564  and  _566
REMARK  236  A    between atoms: _566  and  _567
REMARK  237  A    between atoms: _566  and  _569
REMARK  238  A    between atoms: _569  and  _570
REMARK  239  A    between atoms: _573  and  _575
REMARK  240  A    between atoms: _575  and  _576
REMARK  241  A    between atoms: _575  and  _578
REMARK  242  A    between atoms: _578  and  _579
REMARK  243  A    between atoms: _585  and  _587
REMARK  244  A    between atoms: _587  and  _588
REMARK  245  A    between atoms: _587  and  _590
REMARK  246  A    between atoms: _590  and  _591
REMARK  247  A    between atoms: _591  and  _592
REMARK  248  A    between atoms: _595  and  _597
REMARK  249  A    between atoms: _597  and  _598
REMARK  250  A    between atoms: _597  and  _600
REMARK  251  A    between atoms: _600  and  _601
REMARK  252  A    between atoms: _601  and  _602
REMARK  253  A    between atoms: _602  and  _603
REMARK  254  A    between atoms: _612  and  _614
REMARK  255  A    between atoms: _614  and  _615
REMARK  256  A    between atoms: _614  and  _617
REMARK  257  A    between atoms: _617  and  _618
REMARK  258  A    between atoms: _618  and  _619
REMARK  259  A    between atoms: _619  and  _620
REMARK  260  A    between atoms: _629  and  _631
REMARK  261  A    between atoms: _631  and  _632
REMARK  262  A    between atoms: _631  and  _634
REMARK  263  A    between atoms: _634  and  _635
REMARK  264  A    between atoms: _640  and  _641
REMARK  265  A    between atoms: _643  and  _645
REMARK  266  A    between atoms: _645  and  _646
REMARK  267  A    between atoms: _645  and  _648
REMARK  268  A    between atoms: _648  and  _649
REMARK  269  A    between atoms: _652  and  _654
REMARK  270  A    between atoms: _654  and  _655
REMARK  271  A    between atoms: _654  and  _657
REMARK  272  A    between atoms: _657  and  _658
REMARK  273  A    between atoms: _658  and  _659
REMARK  274  A    between atoms: _659  and  _660
REMARK  275  A    between atoms: _660  and  _661
REMARK  276  A    between atoms: _665  and  _667
REMARK  277  A    between atoms: _667  and  _668
REMARK  278  A    between atoms: _667  and  _670
REMARK  279  A    between atoms: _670  and  _671
REMARK  280  A    between atoms: _676  and  _678
REMARK  281  A    between atoms: _678  and  _679
REMARK  282  A    between atoms: _678  and  _681
REMARK  283  A    between atoms: _681  and  _682
REMARK  284  A    between atoms: _692  and  _694
REMARK  285  A    between atoms: _694  and  _695
REMARK  286  A    between atoms: _694  and  _697
REMARK  287  A    between atoms: _697  and  _698
REMARK  288  A    between atoms: _698  and  _699
REMARK  289  A    between atoms: _702  and  _704
REMARK  290  A    between atoms: _704  and  _705
REMARK  291  A    between atoms: _704  and  _707
REMARK  292  A    between atoms: _707  and  _708
REMARK  293  A    between atoms: _711  and  _713
REMARK  294  A    between atoms: _713  and  _714
REMARK  295  A    between atoms: _713  and  _716
REMARK  296  A    between atoms: _716  and  _717
REMARK  297  A    between atoms: _722  and  _724
REMARK  298  A    between atoms: _724  and  _725
REMARK  299  A    between atoms: _724  and  _727
REMARK  300  A    between atoms: _727  and  _728
REMARK  301  A    between atoms: _734  and  _736
REMARK  302  A    between atoms: _736  and  _737
REMARK  303  A    between atoms: _736  and  _739
REMARK  304  A    between atoms: _739  and  _740
REMARK  305  A    between atoms: _742  and  _744
REMARK  306  A    between atoms: _744  and  _745
REMARK  307  A    between atoms: _747  and  _749
REMARK  308  A    between atoms: _749  and  _750
REMARK  309  A    between atoms: _749  and  _752
REMARK  310  A    between atoms: _752  and  _753
REMARK  311  A    between atoms: _758  and  _759
REMARK  312  A    between atoms: _761  and  _763
REMARK  313  A    between atoms: _763  and  _764
REMARK  314  A    between atoms: _763  and  _766
REMARK  315  A    between atoms: _766  and  _767
REMARK  316  A    between atoms: _772  and  _773
REMARK  317  A    between atoms: _775  and  _777
REMARK  318  A    between atoms: _777  and  _778
REMARK  319  A    between atoms: _777  and  _780
REMARK  320  A    between atoms: _780  and  _781
REMARK  321  A    between atoms: _785  and  ZN_876
REMARK  322  A    between atoms: _786  and  _788
REMARK  323  A    between atoms: _788  and  _789
REMARK  324  A    between atoms: _788  and  _791
REMARK  325  A    between atoms: _791  and  _792
REMARK  326  A    between atoms: _792  and  _793
REMARK  327  A    between atoms: _796  and  _798
REMARK  328  A    between atoms: _798  and  _799
REMARK  329  A    between atoms: _798  and  _801
REMARK  330  A    between atoms: _801  and  _802
REMARK  331  A    between atoms: _802  and  _803
REMARK  332  A    between atoms: _803  and  _804
REMARK  333  A    between atoms: _813  and  _815
REMARK  334  A    between atoms: _815  and  _816
REMARK  335  A    between atoms: _815  and  _818
REMARK  336  A    between atoms: _818  and  _819
REMARK  337  A    between atoms: _824  and  _825
REMARK  338  A    between atoms: _827  and  _829
REMARK  339  A    between atoms: _829  and  _830
REMARK  340  A    between atoms: _829  and  _832
REMARK  341  A    between atoms: _832  and  _833
REMARK  342  A    between atoms: _838  and  _840
REMARK  343  A    between atoms: _840  and  _841
REMARK  344  A    between atoms: _840  and  _843
REMARK  345  A    between atoms: _843  and  _844
REMARK  346  A    between atoms: _844  and  _845
REMARK  347  A    between atoms: _845  and  _846
REMARK  348  A    between atoms: _846  and  _847
REMARK  349  A    between atoms: _851  and  _853
REMARK  350  A    between atoms: _853  and  _854
REMARK  351  A    between atoms: _853  and  _856
REMARK  352  A    between atoms: _856  and  _857
REMARK  353  A    between atoms: _862  and  _863
REMARK  354  A    between atoms: _865  and  _867
REMARK  355  A    between atoms: _867  and  _868
REMARK  356  A    between atoms: _871  and  _873
REMARK  357  A    between atoms: _873  and  _874
REMARK                            x       y       z     vdW  Elec       q    Type
REMARK                         _______ _______ _______ _____ _____    ______ ____
ROOT
ATOM      1  O   HOH     1      19.617  53.167  44.990  0.00  0.00    +0.000 OA
ENDROOT
TORSDOF 0
REMARK  Name = ../refined-set-2016/2xei/2xei_pocket.pdb
REMARK  357 active torsions:
REMARK  status: ('A' for Active; 'I' for Inactive)
REMARK    1  A    between atoms: _1  and  _3
REMARK    2  A    between atoms: _3  and  _4
REMARK    3  A    between atoms: _7  and  _9
REMARK    4  A    between atoms: _9  and  _10
REMARK    5  A    between atoms: _9  and  _12
REMARK    6  A    between atoms: _12  and  _13
REMARK    7  A    between atoms: _19  and  _21
REMARK    8  A    between atoms: _21  and  _22
REMARK    9  A    between atoms: _24  and  _26
REMARK   10  A    between atoms: _26  and  _27
REMARK   11  A    between atoms: _26  and  _29
REMARK   12  A    between atoms: _29  and  _30
REMARK   13  A    between atoms: _30  and  _31
REMARK   14  A    between atoms: _31  and  _32
REMARK   15  A    between atoms: _32  and  _33
REMARK   16  A    between atoms: _37  and  _39
REMARK   17  A    between atoms: _39  and  _40
REMARK   18  A    between atoms: _39  and  _42
REMARK   19  A    between atoms: _45  and  _47
REMARK   20  A    between atoms: _47  and  _48
REMARK   21  A    between atoms: _47  and  _50
REMARK   22  A    between atoms: _50  and  _51
REMARK   23  A    between atoms: _57  and  _59
REMARK   24  A    between atoms: _59  and  _60
REMARK   25  A    between atoms: _59  and  _62
REMARK   26  A    between atoms: _62  and  _63
REMARK   27  A    between atoms: _63  and  _64
REMARK   28  A    between atoms: _64  and  _65
REMARK   29  A    between atoms: _74  and  _76
REMARK   30  A    between atoms: _76  and  _77
REMARK   31  A    between atoms: _79  and  _81
REMARK   32  A    between atoms: _81  and  _82
REMARK   33  A    between atoms: _81  and  _84
REMARK   34  A    between atoms: _84  and  _85
REMARK   35  A    between atoms: _90  and  _91
REMARK   36  A    between atoms: _93  and  _95
REMARK   37  A    between atoms: _95  and  _96
REMARK   38  A    between atoms: _95  and  _98
REMARK   39  A    between atoms: _98  and  _99
REMARK   40  A    between atoms: _99  and  _100
REMARK   41  A    between atoms: _105  and  _107
REMARK   42  A    between atoms: _107  and  _108
REMARK   43  A    between atoms: _107  and  _110
REMARK   44  A    between atoms: _110  and  _111
REMARK   45  A    between atoms: _111  and  _112
REMARK   46  A    between atoms: _112  and  _113
REMARK   47  A    between atoms: _122  and  _124
REMARK   48  A    between atoms: _124  and  _125
REMARK   49  A    between atoms: _127  and  _129
REMARK   50  A    between atoms: _129  and  _130
REMARK   51  A    between atoms: _129  and  _132
REMARK   52  A    between atoms: _132  and  _133
REMARK   53  A    between atoms: _138  and  _140
REMARK   54  A    between atoms: _140  and  _141
REMARK   55  A    between atoms: _140  and  _143
REMARK   56  A    between atoms: _143  and  _144
REMARK   57  A    between atoms: _147  and  _149
REMARK   58  A    between atoms: _149  and  _150
REMARK   59  A    between atoms: _149  and  _152
REMARK   60  A    between atoms: _152  and  _153
REMARK   61  A    between atoms: _156  and  _158
REMARK   62  A    between atoms: _158  and  _159
REMARK   63  A    between atoms: _158  and  _161
REMARK   64  A    between atoms: _161  and  _162
REMARK   65  A    between atoms: _167  and  _169
REMARK   66  A    between atoms: _169  and  _170
REMARK   67  A    between atoms: _169  and  _172
REMARK   68  A    between atoms: _172  and  _173
REMARK   69  A    between atoms: _176  and  _178
REMARK   70  A    between atoms: _178  and  _179
REMARK   71  A    between atoms: _178  and  _181
REMARK   72  A    between atoms: _181  and  _182
REMARK   73  A    between atoms: _187  and  _189
REMARK   74  A    between atoms: _189  and  _190
REMARK   75  A    between atoms: _192  and  _194
REMARK   76  A    between atoms: _194  and  _195
REMARK   77  A    between atoms: _194  and  _197
REMARK   78  A    between atoms: _197  and  _198
REMARK   79  A    between atoms: _202  and  ZN_877
REMARK   80  A    between atoms: _203  and  _205
REMARK   81  A    between atoms: _205  and  _206
REMARK   82  A    between atoms: _205  and  _208
REMARK   83  A    between atoms: _208  and  _209
REMARK   84  A    between atoms: _212  and  _214
REMARK   85  A    between atoms: _214  and  _215
REMARK   86  A    between atoms: _214  and  _217
REMARK   87  A    between atoms: _217  and  _218
REMARK   88  A    between atoms: _228  and  _230
REMARK   89  A    between atoms: _230  and  _231
REMARK   90  A    between atoms: _230  and  _233
REMARK   91  A    between atoms: _233  and  _234
REMARK   92  A    between atoms: _237  and  _239
REMARK   93  A    between atoms: _239  and  _240
REMARK   94  A    between atoms: _239  and  _242
REMARK   95  A    between atoms: _242  and  _243
REMARK   96  A    between atoms: _243  and  _244
REMARK   97  A    between atoms: _243  and  _245
REMARK   98  A    between atoms: _244  and  ZN_877
REMARK   99  A    between atoms: _245  and  ZN_876
REMARK  100  A    between atoms: _247  and  _248
REMARK  101  A    between atoms: _253  and  _255
REMARK  102  A    between atoms: _255  and  _256
REMARK  103  A    between atoms: _259  and  _261
REMARK  104  A    between atoms: _261  and  _262
REMARK  105  A    between atoms: _261  and  _264
REMARK  106  A    between atoms: _264  and  _265
REMARK  107  A    between atoms: _265  and  _266
REMARK  108  A    between atoms: _269  and  _271
REMARK  109  A    between atoms: _271  and  _272
REMARK  110  A    between atoms: _271  and  _274
REMARK  111  A    between atoms: _274  and  _275
REMARK  112  A    between atoms: _275  and  _276
REMARK  113  A    between atoms: _276  and  _278
REMARK  114  A    between atoms: _278  and  ZN_876
REMARK  115  A    between atoms: _279  and  _281
REMARK  116  A    between atoms: _281  and  _282
REMARK  117  A    between atoms: _281  and  _284
REMARK  118  A    between atoms: _284  and  _285
REMARK  119  A    between atoms: _291  and  _293
REMARK  120  A    between atoms: _293  and  _294
REMARK  121  A    between atoms: _296  and  _298
REMARK  122  A    between atoms: _298  and  _299
REMARK  123  A    between atoms: _298  and  _301
REMARK  124  A    between atoms: _301  and  _302
REMARK  125  A    between atoms: _305  and  _307
REMARK  126  A    between atoms: _307  and  _308
REMARK  127  A    between atoms: _307  and  _310
REMARK  128  A    between atoms: _310  and  _311
REMARK  129  A    between atoms: _314  and  _316
REMARK  130  A    between atoms: _316  and  _317
REMARK  131  A    between atoms: _316  and  _319
REMARK  132  A    between atoms: _319  and  _320
REMARK  133  A    between atoms: _325  and  _327
REMARK  134  A    between atoms: _327  and  _328
REMARK  135  A    between atoms: _327  and  _330
REMARK  136  A    between atoms: _330  and  _331
REMARK  137  A    between atoms: _331  and  _333
REMARK  138  A    between atoms: _333  and  ZN_877
REMARK  139  A    between atoms: _334  and  _336
REMARK  140  A    between atoms: _336  and  _337
REMARK  141  A    between atoms: _336  and  _339
REMARK  142  A    between atoms: _339  and  _340
REMARK  143  A    between atoms: _342  and  _344
REMARK  144  A    between atoms: _344  and  _345
REMARK  145  A    between atoms: _344  and  _347
REMARK  146  A    between atoms: _347  and  _348
REMARK  147  A    between atoms: _350  and  _352
REMARK  148  A    between atoms: _352  and  _353
REMARK  149  A    between atoms: _352  and  _355
REMARK  150  A    between atoms: _355  and  _356
REMARK  151  A    between atoms: _359  and  _361
REMARK  152  A    between atoms: _361  and  _362
REMARK  153  A    between atoms: _361  and  _364
REMARK  154  A    between atoms: _364  and  _365
REMARK  155  A    between atoms: _365  and  _366
REMARK  156  A    between atoms: _369  and  _371
REMARK  157  A    between atoms: _371  and  _372
REMARK  158  A    between atoms: _371  and  _374
REMARK  159  A    between atoms: _374  and  _375
REMARK  160  A    between atoms: _380  and  _381
REMARK  161  A    between atoms: _383  and  _385
REMARK  162  A    between atoms: _385  and  _386
REMARK  163  A    between atoms: _385  and  _388
REMARK  164  A    between atoms: _388  and  _389
REMARK  165  A    between atoms: _392  and  _394
REMARK  166  A    between atoms: _394  and  _395
REMARK  167  A    between atoms: _394  and  _397
REMARK  168  A    between atoms: _397  and  _398
REMARK  169  A    between atoms: _401  and  _403
REMARK  170  A    between atoms: _403  and  _404
REMARK  171  A    between atoms: _403  and  _406
REMARK  172  A    between atoms: _406  and  _407
REMARK  173  A    between atoms: _407  and  _408
REMARK  174  A    between atoms: _408  and  _409
REMARK  175  A    between atoms: _418  and  _420
REMARK  176  A    between atoms: _420  and  _421
REMARK  177  A    between atoms: _420  and  _423
REMARK  178  A    between atoms: _426  and  _428
REMARK  179  A    between atoms: _428  and  _429
REMARK  180  A    between atoms: _428  and  _431
REMARK  181  A    between atoms: _431  and  _432
REMARK  182  A    between atoms: _435  and  _437
REMARK  183  A    between atoms: _437  and  _438
REMARK  184  A    between atoms: _437  and  _440
REMARK  185  A    between atoms: _440  and  _441
REMARK  186  A    between atoms: _451  and  _453
REMARK  187  A    between atoms: _453  and  _454
REMARK  188  A    between atoms: _453  and  _456
REMARK  189  A    between atoms: _456  and  _457
REMARK  190  A    between atoms: _457  and  _458
REMARK  191  A    between atoms: _458  and  _459
REMARK  192  A    between atoms: _459  and  _460
REMARK  193  A    between atoms: _464  and  _466
REMARK  194  A    between atoms: _466  and  _467
REMARK  195  A    between atoms: _466  and  _469
REMARK  196  A    between atoms: _469  and  _470
REMARK  197  A    between atoms: _473  and  _474
REMARK  198  A    between atoms: _479  and  _481
REMARK  199  A    between atoms: _481  and  _482
REMARK  200  A    between atoms: _481  and  _484
REMARK  201  A    between atoms: _484  and  _485
REMARK  202  A    between atoms: _485  and  _486
REMARK  203  A    between atoms: _486  and  _487
REMARK  204  A    between atoms: _496  and  _498
REMARK  205  A    between atoms: _498  and  _499
REMARK  206  A    between atoms: _498  and  _501
REMARK  207  A    between atoms: _501  and  _502
REMARK  208  A    between atoms: _505  and  _507
REMARK  209  A    between atoms: _507  and  _508
REMARK  210  A    between atoms: _507  and  _510
REMARK  211  A    between atoms: _510  and  _511
REMARK  212  A    between atoms: _513  and  _515
REMARK  213  A    between atoms: _515  and  _516
REMARK  214  A    between atoms: _515  and  _518
REMARK  215  A    between atoms: _518  and  _519
REMARK  216  A    between atoms: _519  and  _520
REMARK  217  A    between atoms: _520  and  _521
REMARK  218  A    between atoms: _521  and  _522
REMARK  219  A    between atoms: _526  and  _528
REMARK  220  A    between atoms: _528  and  _529
REMARK  221  A    between atoms: _528  and  _531
REMARK  222  A    between atoms: _531  and  _532
REMARK  223  A    between atoms: _535  and  _537
REMARK  224  A    between atoms: _537  and  _538
REMARK  225  A    between atoms: _540  and  _542
REMARK  226  A    between atoms: _542  and  _543
REMARK  227  A    between atoms: _542  and  _545
REMARK  228  A    between atoms: _545  and  _546
REMARK  229  A    between atoms: _548  and  _550
REMARK  230  A    between atoms: _550  and  _551
REMARK  231  A    between atoms: _553  and  _555
REMARK  232  A    between atoms: _555  and  _556
REMARK  233  A    between atoms: _555  and  _558
REMARK  234  A    between atoms: _558  and  _559
REMARK  235  A    between atoms: _564  and  _566
REMARK  236  A    between atoms: _566  and  _567
REMARK  237  A    between atoms: _566  and  _569
REMARK  238  A    between atoms: _569  and  _570
REMARK  239  A    between atoms: _573  and  _575
REMARK  240  A    between atoms: _575  and  _576
REMARK  241  A    between atoms: _575  and  _578
REMARK  242  A    between atoms: _578  and  _579
REMARK  243  A    between atoms: _585  and  _587
REMARK  244  A    between atoms: _587  and  _588
REMARK  245  A    between atoms: _587  and  _590
REMARK  246  A    between atoms: _590  and  _591
REMARK  247  A    between atoms: _591  and  _592
REMARK  248  A    between atoms: _595  and  _597
REMARK  249  A    between atoms: _597  and  _598
REMARK  250  A    between atoms: _597  and  _600
REMARK  251  A    between atoms: _600  and  _601
REMARK  252  A    between atoms: _601  and  _602
REMARK  253  A    between atoms: _602  and  _603
REMARK  254  A    between atoms: _612  and  _614
REMARK  255  A    between atoms: _614  and  _615
REMARK  256  A    between atoms: _614  and  _617
REMARK  257  A    between atoms: _617  and  _618
REMARK  258  A    between atoms: _618  and  _619
REMARK  259  A    between atoms: _619  and  _620
REMARK  260  A    between atoms: _629  and  _631
REMARK  261  A    between atoms: _631  and  _632
REMARK  262  A    between atoms: _631  and  _634
REMARK  263  A    between atoms: _634  and  _635
REMARK  264  A    between atoms: _640  and  _641
REMARK  265  A    between atoms: _643  and  _645
REMARK  266  A    between atoms: _645  and  _646
REMARK  267  A    between atoms: _645  and  _648
REMARK  268  A    between atoms: _648  and  _649
REMARK  269  A    between atoms: _652  and  _654
REMARK  270  A    between atoms: _654  and  _655
REMARK  271  A    between atoms: _654  and  _657
REMARK  272  A    between atoms: _657  and  _658
REMARK  273  A    between atoms: _658  and  _659
REMARK  274  A    between atoms: _659  and  _660
REMARK  275  A    between atoms: _660  and  _661
REMARK  276  A    between atoms: _665  and  _667
REMARK  277  A    between atoms: _667  and  _668
REMARK  278  A    between atoms: _667  and  _670
REMARK  279  A    between atoms: _670  and  _671
REMARK  280  A    between atoms: _676  and  _678
REMARK  281  A    between atoms: _678  and  _679
REMARK  282  A    between atoms: _678  and  _681
REMARK  283  A    between atoms: _681  and  _682
REMARK  284  A    between atoms: _692  and  _694
REMARK  285  A    between atoms: _694  and  _695
REMARK  286  A    between atoms: _694  and  _697
REMARK  287  A    between atoms: _697  and  _698
REMARK  288  A    between atoms: _698  and  _699
REMARK  289  A    between atoms: _702  and  _704
REMARK  290  A    between atoms: _704  and  _705
REMARK  291  A    between atoms: _704  and  _707
REMARK  292  A    between atoms: _707  and  _708
REMARK  293  A    between atoms: _711  and  _713
REMARK  294  A    between atoms: _713  and  _714
REMARK  295  A    between atoms: _713  and  _716
REMARK  296  A    between atoms: _716  and  _717
REMARK  297  A    between atoms: _722  and  _724
REMARK  298  A    between atoms: _724  and  _725
REMARK  299  A    between atoms: _724  and  _727
REMARK  300  A    between atoms: _727  and  _728
REMARK  301  A    between atoms: _734  and  _736
REMARK  302  A    between atoms: _736  and  _737
REMARK  303  A    between atoms: _736  and  _739
REMARK  304  A    between atoms: _739  and  _740
REMARK  305  A    between atoms: _742  and  _744
REMARK  306  A    between atoms: _744  and  _745
REMARK  307  A    between atoms: _747  and  _749
REMARK  308  A    between atoms: _749  and  _750
REMARK  309  A    between atoms: _749  and  _752
REMARK  310  A    between atoms: _752  and  _753
REMARK  311  A    between atoms: _758  and  _759
REMARK  312  A    between atoms: _761  and  _763
REMARK  313  A    between atoms: _763  and  _764
REMARK  314  A    between atoms: _763  and  _766
REMARK  315  A    between atoms: _766  and  _767
REMARK  316  A    between atoms: _772  and  _773
REMARK  317  A    between atoms: _775  and  _777
REMARK  318  A    between atoms: _777  and  _778
REMARK  319  A    between atoms: _777  and  _780
REMARK  320  A    between atoms: _780  and  _781
REMARK  321  A    between atoms: _785  and  ZN_876
REMARK  322  A    between atoms: _786  and  _788
REMARK  323  A    between atoms: _788  and  _789
REMARK  324  A    between atoms: _788  and  _791
REMARK  325  A    between atoms: _791  and  _792
REMARK  326  A    between atoms: _792  and  _793
REMARK  327  A    between atoms: _796  and  _798
REMARK  328  A    between atoms: _798  and  _799
REMARK  329  A    between atoms: _798  and  _801
REMARK  330  A    between atoms: _801  and  _802
REMARK  331  A    between atoms: _802  and  _803
REMARK  332  A    between atoms: _803  and  _804
REMARK  333  A    between atoms: _813  and  _815
REMARK  334  A    between atoms: _815  and  _816
REMARK  335  A    between atoms: _815  and  _818
REMARK  336  A    between atoms: _818  and  _819
REMARK  337  A    between atoms: _824  and  _825
REMARK  338  A    between atoms: _827  and  _829
REMARK  339  A    between atoms: _829  and  _830
REMARK  340  A    between atoms: _829  and  _832
REMARK  341  A    between atoms: _832  and  _833
REMARK  342  A    between atoms: _838  and  _840
REMARK  343  A    between atoms: _840  and  _841
REMARK  344  A    between atoms: _840  and  _843
REMARK  345  A    between atoms: _843  and  _844
REMARK  346  A    between atoms: _844  and  _845
REMARK  347  A    between atoms: _845  and  _846
REMARK  348  A    between atoms: _846  and  _847
REMARK  349  A    between atoms: _851  and  _853
REMARK  350  A    between atoms: _853  and  _854
REMARK  351  A    between atoms: _853  and  _856
REMARK  352  A    between atoms: _856  and  _857
REMARK  353  A    between atoms: _862  and  _863
REMARK  354  A    between atoms: _865  and  _867
REMARK  355  A    between atoms: _867  and  _868
REMARK  356  A    between atoms: _871  and  _873
REMARK  357  A    between atoms: _873  and  _874
REMARK                            x       y       z     vdW  Elec       q    Type
REMARK                         _______ _______ _______ _____ _____    ______ ____
ROOT
ATOM      1  O   HOH     1      13.534  44.617  49.748  0.00  0.00    +0.000 OA
ENDROOT
TORSDOF 0
REMARK  Name = ../refined-set-2016/2xei/2xei_pocket.pdb
REMARK  357 active torsions:
REMARK  status: ('A' for Active; 'I' for Inactive)
REMARK    1  A    between atoms: _1  and  _3
REMARK    2  A    between atoms: _3  and  _4
REMARK    3  A    between atoms: _7  and  _9
REMARK    4  A    between atoms: _9  and  _10
REMARK    5  A    between atoms: _9  and  _12
REMARK    6  A    between atoms: _12  and  _13
REMARK    7  A    between atoms: _19  and  _21
REMARK    8  A    between atoms: _21  and  _22
REMARK    9  A    between atoms: _24  and  _26
REMARK   10  A    between atoms: _26  and  _27
REMARK   11  A    between atoms: _26  and  _29
REMARK   12  A    between atoms: _29  and  _30
REMARK   13  A    between atoms: _30  and  _31
REMARK   14  A    between atoms: _31  and  _32
REMARK   15  A    between atoms: _32  and  _33
REMARK   16  A    between atoms: _37  and  _39
REMARK   17  A    between atoms: _39  and  _40
REMARK   18  A    between atoms: _39  and  _42
REMARK   19  A    between atoms: _45  and  _47
REMARK   20  A    between atoms: _47  and  _48
REMARK   21  A    between atoms: _47  and  _50
REMARK   22  A    between atoms: _50  and  _51
REMARK   23  A    between atoms: _57  and  _59
REMARK   24  A    between atoms: _59  and  _60
REMARK   25  A    between atoms: _59  and  _62
REMARK   26  A    between atoms: _62  and  _63
REMARK   27  A    between atoms: _63  and  _64
REMARK   28  A    between atoms: _64  and  _65
REMARK   29  A    between atoms: _74  and  _76
REMARK   30  A    between atoms: _76  and  _77
REMARK   31  A    between atoms: _79  and  _81
REMARK   32  A    between atoms: _81  and  _82
REMARK   33  A    between atoms: _81  and  _84
REMARK   34  A    between atoms: _84  and  _85
REMARK   35  A    between atoms: _90  and  _91
REMARK   36  A    between atoms: _93  and  _95
REMARK   37  A    between atoms: _95  and  _96
REMARK   38  A    between atoms: _95  and  _98
REMARK   39  A    between atoms: _98  and  _99
REMARK   40  A    between atoms: _99  and  _100
REMARK   41  A    between atoms: _105  and  _107
REMARK   42  A    between atoms: _107  and  _108
REMARK   43  A    between atoms: _107  and  _110
REMARK   44  A    between atoms: _110  and  _111
REMARK   45  A    between atoms: _111  and  _112
REMARK   46  A    between atoms: _112  and  _113
REMARK   47  A    between atoms: _122  and  _124
REMARK   48  A    between atoms: _124  and  _125
REMARK   49  A    between atoms: _127  and  _129
REMARK   50  A    between atoms: _129  and  _130
REMARK   51  A    between atoms: _129  and  _132
REMARK   52  A    between atoms: _132  and  _133
REMARK   53  A    between atoms: _138  and  _140
REMARK   54  A    between atoms: _140  and  _141
REMARK   55  A    between atoms: _140  and  _143
REMARK   56  A    between atoms: _143  and  _144
REMARK   57  A    between atoms: _147  and  _149
REMARK   58  A    between atoms: _149  and  _150
REMARK   59  A    between atoms: _149  and  _152
REMARK   60  A    between atoms: _152  and  _153
REMARK   61  A    between atoms: _156  and  _158
REMARK   62  A    between atoms: _158  and  _159
REMARK   63  A    between atoms: _158  and  _161
REMARK   64  A    between atoms: _161  and  _162
REMARK   65  A    between atoms: _167  and  _169
REMARK   66  A    between atoms: _169  and  _170
REMARK   67  A    between atoms: _169  and  _172
REMARK   68  A    between atoms: _172  and  _173
REMARK   69  A    between atoms: _176  and  _178
REMARK   70  A    between atoms: _178  and  _179
REMARK   71  A    between atoms: _178  and  _181
REMARK   72  A    between atoms: _181  and  _182
REMARK   73  A    between atoms: _187  and  _189
REMARK   74  A    between atoms: _189  and  _190
REMARK   75  A    between atoms: _192  and  _194
REMARK   76  A    between atoms: _194  and  _195
REMARK   77  A    between atoms: _194  and  _197
REMARK   78  A    between atoms: _197  and  _198
REMARK   79  A    between atoms: _202  and  ZN_877
REMARK   80  A    between atoms: _203  and  _205
REMARK   81  A    between atoms: _205  and  _206
REMARK   82  A    between atoms: _205  and  _208
REMARK   83  A    between atoms: _208  and  _209
REMARK   84  A    between atoms: _212  and  _214
REMARK   85  A    between atoms: _214  and  _215
REMARK   86  A    between atoms: _214  and  _217
REMARK   87  A    between atoms: _217  and  _218
REMARK   88  A    between atoms: _228  and  _230
REMARK   89  A    between atoms: _230  and  _231
REMARK   90  A    between atoms: _230  and  _233
REMARK   91  A    between atoms: _233  and  _234
REMARK   92  A    between atoms: _237  and  _239
REMARK   93  A    between atoms: _239  and  _240
REMARK   94  A    between atoms: _239  and  _242
REMARK   95  A    between atoms: _242  and  _243
REMARK   96  A    between atoms: _243  and  _244
REMARK   97  A    between atoms: _243  and  _245
REMARK   98  A    between atoms: _244  and  ZN_877
REMARK   99  A    between atoms: _245  and  ZN_876
REMARK  100  A    between atoms: _247  and  _248
REMARK  101  A    between atoms: _253  and  _255
REMARK  102  A    between atoms: _255  and  _256
REMARK  103  A    between atoms: _259  and  _261
REMARK  104  A    between atoms: _261  and  _262
REMARK  105  A    between atoms: _261  and  _264
REMARK  106  A    between atoms: _264  and  _265
REMARK  107  A    between atoms: _265  and  _266
REMARK  108  A    between atoms: _269  and  _271
REMARK  109  A    between atoms: _271  and  _272
REMARK  110  A    between atoms: _271  and  _274
REMARK  111  A    between atoms: _274  and  _275
REMARK  112  A    between atoms: _275  and  _276
REMARK  113  A    between atoms: _276  and  _278
REMARK  114  A    between atoms: _278  and  ZN_876
REMARK  115  A    between atoms: _279  and  _281
REMARK  116  A    between atoms: _281  and  _282
REMARK  117  A    between atoms: _281  and  _284
REMARK  118  A    between atoms: _284  and  _285
REMARK  119  A    between atoms: _291  and  _293
REMARK  120  A    between atoms: _293  and  _294
REMARK  121  A    between atoms: _296  and  _298
REMARK  122  A    between atoms: _298  and  _299
REMARK  123  A    between atoms: _298  and  _301
REMARK  124  A    between atoms: _301  and  _302
REMARK  125  A    between atoms: _305  and  _307
REMARK  126  A    between atoms: _307  and  _308
REMARK  127  A    between atoms: _307  and  _310
REMARK  128  A    between atoms: _310  and  _311
REMARK  129  A    between atoms: _314  and  _316
REMARK  130  A    between atoms: _316  and  _317
REMARK  131  A    between atoms: _316  and  _319
REMARK  132  A    between atoms: _319  and  _320
REMARK  133  A    between atoms: _325  and  _327
REMARK  134  A    between atoms: _327  and  _328
REMARK  135  A    between atoms: _327  and  _330
REMARK  136  A    between atoms: _330  and  _331
REMARK  137  A    between atoms: _331  and  _333
REMARK  138  A    between atoms: _333  and  ZN_877
REMARK  139  A    between atoms: _334  and  _336
REMARK  140  A    between atoms: _336  and  _337
REMARK  141  A    between atoms: _336  and  _339
REMARK  142  A    between atoms: _339  and  _340
REMARK  143  A    between atoms: _342  and  _344
REMARK  144  A    between atoms: _344  and  _345
REMARK  145  A    between atoms: _344  and  _347
REMARK  146  A    between atoms: _347  and  _348
REMARK  147  A    between atoms: _350  and  _352
REMARK  148  A    between atoms: _352  and  _353
REMARK  149  A    between atoms: _352  and  _355
REMARK  150  A    between atoms: _355  and  _356
REMARK  151  A    between atoms: _359  and  _361
REMARK  152  A    between atoms: _361  and  _362
REMARK  153  A    between atoms: _361  and  _364
REMARK  154  A    between atoms: _364  and  _365
REMARK  155  A    between atoms: _365  and  _366
REMARK  156  A    between atoms: _369  and  _371
REMARK  157  A    between atoms: _371  and  _372
REMARK  158  A    between atoms: _371  and  _374
REMARK  159  A    between atoms: _374  and  _375
REMARK  160  A    between atoms: _380  and  _381
REMARK  161  A    between atoms: _383  and  _385
REMARK  162  A    between atoms: _385  and  _386
REMARK  163  A    between atoms: _385  and  _388
REMARK  164  A    between atoms: _388  and  _389
REMARK  165  A    between atoms: _392  and  _394
REMARK  166  A    between atoms: _394  and  _395
REMARK  167  A    between atoms: _394  and  _397
REMARK  168  A    between atoms: _397  and  _398
REMARK  169  A    between atoms: _401  and  _403
REMARK  170  A    between atoms: _403  and  _404
REMARK  171  A    between atoms: _403  and  _406
REMARK  172  A    between atoms: _406  and  _407
REMARK  173  A    between atoms: _407  and  _408
REMARK  174  A    between atoms: _408  and  _409
REMARK  175  A    between atoms: _418  and  _420
REMARK  176  A    between atoms: _420  and  _421
REMARK  177  A    between atoms: _420  and  _423
REMARK  178  A    between atoms: _426  and  _428
REMARK  179  A    between atoms: _428  and  _429
REMARK  180  A    between atoms: _428  and  _431
REMARK  181  A    between atoms: _431  and  _432
REMARK  182  A    between atoms: _435  and  _437
REMARK  183  A    between atoms: _437  and  _438
REMARK  184  A    between atoms: _437  and  _440
REMARK  185  A    between atoms: _440  and  _441
REMARK  186  A    between atoms: _451  and  _453
REMARK  187  A    between atoms: _453  and  _454
REMARK  188  A    between atoms: _453  and  _456
REMARK  189  A    between atoms: _456  and  _457
REMARK  190  A    between atoms: _457  and  _458
REMARK  191  A    between atoms: _458  and  _459
REMARK  192  A    between atoms: _459  and  _460
REMARK  193  A    between atoms: _464  and  _466
REMARK  194  A    between atoms: _466  and  _467
REMARK  195  A    between atoms: _466  and  _469
REMARK  196  A    between atoms: _469  and  _470
REMARK  197  A    between atoms: _473  and  _474
REMARK  198  A    between atoms: _479  and  _481
REMARK  199  A    between atoms: _481  and  _482
REMARK  200  A    between atoms: _481  and  _484
REMARK  201  A    between atoms: _484  and  _485
REMARK  202  A    between atoms: _485  and  _486
REMARK  203  A    between atoms: _486  and  _487
REMARK  204  A    between atoms: _496  and  _498
REMARK  205  A    between atoms: _498  and  _499
REMARK  206  A    between atoms: _498  and  _501
REMARK  207  A    between atoms: _501  and  _502
REMARK  208  A    between atoms: _505  and  _507
REMARK  209  A    between atoms: _507  and  _508
REMARK  210  A    between atoms: _507  and  _510
REMARK  211  A    between atoms: _510  and  _511
REMARK  212  A    between atoms: _513  and  _515
REMARK  213  A    between atoms: _515  and  _516
REMARK  214  A    between atoms: _515  and  _518
REMARK  215  A    between atoms: _518  and  _519
REMARK  216  A    between atoms: _519  and  _520
REMARK  217  A    between atoms: _520  and  _521
REMARK  218  A    between atoms: _521  and  _522
REMARK  219  A    between atoms: _526  and  _528
REMARK  220  A    between atoms: _528  and  _529
REMARK  221  A    between atoms: _528  and  _531
REMARK  222  A    between atoms: _531  and  _532
REMARK  223  A    between atoms: _535  and  _537
REMARK  224  A    between atoms: _537  and  _538
REMARK  225  A    between atoms: _540  and  _542
REMARK  226  A    between atoms: _542  and  _543
REMARK  227  A    between atoms: _542  and  _545
REMARK  228  A    between atoms: _545  and  _546
REMARK  229  A    between atoms: _548  and  _550
REMARK  230  A    between atoms: _550  and  _551
REMARK  231  A    between atoms: _553  and  _555
REMARK  232  A    between atoms: _555  and  _556
REMARK  233  A    between atoms: _555  and  _558
REMARK  234  A    between atoms: _558  and  _559
REMARK  235  A    between atoms: _564  and  _566
REMARK  236  A    between atoms: _566  and  _567
REMARK  237  A    between atoms: _566  and  _569
REMARK  238  A    between atoms: _569  and  _570
REMARK  239  A    between atoms: _573  and  _575
REMARK  240  A    between atoms: _575  and  _576
REMARK  241  A    between atoms: _575  and  _578
REMARK  242  A    between atoms: _578  and  _579
REMARK  243  A    between atoms: _585  and  _587
REMARK  244  A    between atoms: _587  and  _588
REMARK  245  A    between atoms: _587  and  _590
REMARK  246  A    between atoms: _590  and  _591
REMARK  247  A    between atoms: _591  and  _592
REMARK  248  A    between atoms: _595  and  _597
REMARK  249  A    between atoms: _597  and  _598
REMARK  250  A    between atoms: _597  and  _600
REMARK  251  A    between atoms: _600  and  _601
REMARK  252  A    between atoms: _601  and  _602
REMARK  253  A    between atoms: _602  and  _603
REMARK  254  A    between atoms: _612  and  _614
REMARK  255  A    between atoms: _614  and  _615
REMARK  256  A    between atoms: _614  and  _617
REMARK  257  A    between atoms: _617  and  _618
REMARK  258  A    between atoms: _618  and  _619
REMARK  259  A    between atoms: _619  and  _620
REMARK  260  A    between atoms: _629  and  _631
REMARK  261  A    between atoms: _631  and  _632
REMARK  262  A    between atoms: _631  and  _634
REMARK  263  A    between atoms: _634  and  _635
REMARK  264  A    between atoms: _640  and  _641
REMARK  265  A    between atoms: _643  and  _645
REMARK  266  A    between atoms: _645  and  _646
REMARK  267  A    between atoms: _645  and  _648
REMARK  268  A    between atoms: _648  and  _649
REMARK  269  A    between atoms: _652  and  _654
REMARK  270  A    between atoms: _654  and  _655
REMARK  271  A    between atoms: _654  and  _657
REMARK  272  A    between atoms: _657  and  _658
REMARK  273  A    between atoms: _658  and  _659
REMARK  274  A    between atoms: _659  and  _660
REMARK  275  A    between atoms: _660  and  _661
REMARK  276  A    between atoms: _665  and  _667
REMARK  277  A    between atoms: _667  and  _668
REMARK  278  A    between atoms: _667  and  _670
REMARK  279  A    between atoms: _670  and  _671
REMARK  280  A    between atoms: _676  and  _678
REMARK  281  A    between atoms: _678  and  _679
REMARK  282  A    between atoms: _678  and  _681
REMARK  283  A    between atoms: _681  and  _682
REMARK  284  A    between atoms: _692  and  _694
REMARK  285  A    between atoms: _694  and  _695
REMARK  286  A    between atoms: _694  and  _697
REMARK  287  A    between atoms: _697  and  _698
REMARK  288  A    between atoms: _698  and  _699
REMARK  289  A    between atoms: _702  and  _704
REMARK  290  A    between atoms: _704  and  _705
REMARK  291  A    between atoms: _704  and  _707
REMARK  292  A    between atoms: _707  and  _708
REMARK  293  A    between atoms: _711  and  _713
REMARK  294  A    between atoms: _713  and  _714
REMARK  295  A    between atoms: _713  and  _716
REMARK  296  A    between atoms: _716  and  _717
REMARK  297  A    between atoms: _722  and  _724
REMARK  298  A    between atoms: _724  and  _725
REMARK  299  A    between atoms: _724  and  _727
REMARK  300  A    between atoms: _727  and  _728
REMARK  301  A    between atoms: _734  and  _736
REMARK  302  A    between atoms: _736  and  _737
REMARK  303  A    between atoms: _736  and  _739
REMARK  304  A    between atoms: _739  and  _740
REMARK  305  A    between atoms: _742  and  _744
REMARK  306  A    between atoms: _744  and  _745
REMARK  307  A    between atoms: _747  and  _749
REMARK  308  A    between atoms: _749  and  _750
REMARK  309  A    between atoms: _749  and  _752
REMARK  310  A    between atoms: _752  and  _753
REMARK  311  A    between atoms: _758  and  _759
REMARK  312  A    between atoms: _761  and  _763
REMARK  313  A    between atoms: _763  and  _764
REMARK  314  A    between atoms: _763  and  _766
REMARK  315  A    between atoms: _766  and  _767
REMARK  316  A    between atoms: _772  and  _773
REMARK  317  A    between atoms: _775  and  _777
REMARK  318  A    between atoms: _777  and  _778
REMARK  319  A    between atoms: _777  and  _780
REMARK  320  A    between atoms: _780  and  _781
REMARK  321  A    between atoms: _785  and  ZN_876
REMARK  322  A    between atoms: _786  and  _788
REMARK  323  A    between atoms: _788  and  _789
REMARK  324  A    between atoms: _788  and  _791
REMARK  325  A    between atoms: _791  and  _792
REMARK  326  A    between atoms: _792  and  _793
REMARK  327  A    between atoms: _796  and  _798
REMARK  328  A    between atoms: _798  and  _799
REMARK  329  A    between atoms: _798  and  _801
REMARK  330  A    between atoms: _801  and  _802
REMARK  331  A    between atoms: _802  and  _803
REMARK  332  A    between atoms: _803  and  _804
REMARK  333  A    between atoms: _813  and  _815
REMARK  334  A    between atoms: _815  and  _816
REMARK  335  A    between atoms: _815  and  _818
REMARK  336  A    between atoms: _818  and  _819
REMARK  337  A    between atoms: _824  and  _825
REMARK  338  A    between atoms: _827  and  _829
REMARK  339  A    between atoms: _829  and  _830
REMARK  340  A    between atoms: _829  and  _832
REMARK  341  A    between atoms: _832  and  _833
REMARK  342  A    between atoms: _838  and  _840
REMARK  343  A    between atoms: _840  and  _841
REMARK  344  A    between atoms: _840  and  _843
REMARK  345  A    between atoms: _843  and  _844
REMARK  346  A    between atoms: _844  and  _845
REMARK  347  A    between atoms: _845  and  _846
REMARK  348  A    between atoms: _846  and  _847
REMARK  349  A    between atoms: _851  and  _853
REMARK  350  A    between atoms: _853  and  _854
REMARK  351  A    between atoms: _853  and  _856
REMARK  352  A    between atoms: _856  and  _857
REMARK  353  A    between atoms: _862  and  _863
REMARK  354  A    between atoms: _865  and  _867
REMARK  355  A    between atoms: _867  and  _868
REMARK  356  A    between atoms: _871  and  _873
REMARK  357  A    between atoms: _873  and  _874
REMARK                            x       y       z     vdW  Elec       q    Type
REMARK                         _______ _______ _______ _____ _____    ______ ____
ROOT
ATOM      1  O   HOH     1      10.222  51.741  39.865  0.00  0.00    +0.000 OA
ENDROOT
TORSDOF 0
REMARK  Name = ../refined-set-2016/2xei/2xei_pocket.pdb
REMARK  357 active torsions:
REMARK  status: ('A' for Active; 'I' for Inactive)
REMARK    1  A    between atoms: _1  and  _3
REMARK    2  A    between atoms: _3  and  _4
REMARK    3  A    between atoms: _7  and  _9
REMARK    4  A    between atoms: _9  and  _10
REMARK    5  A    between atoms: _9  and  _12
REMARK    6  A    between atoms: _12  and  _13
REMARK    7  A    between atoms: _19  and  _21
REMARK    8  A    between atoms: _21  and  _22
REMARK    9  A    between atoms: _24  and  _26
REMARK   10  A    between atoms: _26  and  _27
REMARK   11  A    between atoms: _26  and  _29
REMARK   12  A    between atoms: _29  and  _30
REMARK   13  A    between atoms: _30  and  _31
REMARK   14  A    between atoms: _31  and  _32
REMARK   15  A    between atoms: _32  and  _33
REMARK   16  A    between atoms: _37  and  _39
REMARK   17  A    between atoms: _39  and  _40
REMARK   18  A    between atoms: _39  and  _42
REMARK   19  A    between atoms: _45  and  _47
REMARK   20  A    between atoms: _47  and  _48
REMARK   21  A    between atoms: _47  and  _50
REMARK   22  A    between atoms: _50  and  _51
REMARK   23  A    between atoms: _57  and  _59
REMARK   24  A    between atoms: _59  and  _60
REMARK   25  A    between atoms: _59  and  _62
REMARK   26  A    between atoms: _62  and  _63
REMARK   27  A    between atoms: _63  and  _64
REMARK   28  A    between atoms: _64  and  _65
REMARK   29  A    between atoms: _74  and  _76
REMARK   30  A    between atoms: _76  and  _77
REMARK   31  A    between atoms: _79  and  _81
REMARK   32  A    between atoms: _81  and  _82
REMARK   33  A    between atoms: _81  and  _84
REMARK   34  A    between atoms: _84  and  _85
REMARK   35  A    between atoms: _90  and  _91
REMARK   36  A    between atoms: _93  and  _95
REMARK   37  A    between atoms: _95  and  _96
REMARK   38  A    between atoms: _95  and  _98
REMARK   39  A    between atoms: _98  and  _99
REMARK   40  A    between atoms: _99  and  _100
REMARK   41  A    between atoms: _105  and  _107
REMARK   42  A    between atoms: _107  and  _108
REMARK   43  A    between atoms: _107  and  _110
REMARK   44  A    between atoms: _110  and  _111
REMARK   45  A    between atoms: _111  and  _112
REMARK   46  A    between atoms: _112  and  _113
REMARK   47  A    between atoms: _122  and  _124
REMARK   48  A    between atoms: _124  and  _125
REMARK   49  A    between atoms: _127  and  _129
REMARK   50  A    between atoms: _129  and  _130
REMARK   51  A    between atoms: _129  and  _132
REMARK   52  A    between atoms: _132  and  _133
REMARK   53  A    between atoms: _138  and  _140
REMARK   54  A    between atoms: _140  and  _141
REMARK   55  A    between atoms: _140  and  _143
REMARK   56  A    between atoms: _143  and  _144
REMARK   57  A    between atoms: _147  and  _149
REMARK   58  A    between atoms: _149  and  _150
REMARK   59  A    between atoms: _149  and  _152
REMARK   60  A    between atoms: _152  and  _153
REMARK   61  A    between atoms: _156  and  _158
REMARK   62  A    between atoms: _158  and  _159
REMARK   63  A    between atoms: _158  and  _161
REMARK   64  A    between atoms: _161  and  _162
REMARK   65  A    between atoms: _167  and  _169
REMARK   66  A    between atoms: _169  and  _170
REMARK   67  A    between atoms: _169  and  _172
REMARK   68  A    between atoms: _172  and  _173
REMARK   69  A    between atoms: _176  and  _178
REMARK   70  A    between atoms: _178  and  _179
REMARK   71  A    between atoms: _178  and  _181
REMARK   72  A    between atoms: _181  and  _182
REMARK   73  A    between atoms: _187  and  _189
REMARK   74  A    between atoms: _189  and  _190
REMARK   75  A    between atoms: _192  and  _194
REMARK   76  A    between atoms: _194  and  _195
REMARK   77  A    between atoms: _194  and  _197
REMARK   78  A    between atoms: _197  and  _198
REMARK   79  A    between atoms: _202  and  ZN_877
REMARK   80  A    between atoms: _203  and  _205
REMARK   81  A    between atoms: _205  and  _206
REMARK   82  A    between atoms: _205  and  _208
REMARK   83  A    between atoms: _208  and  _209
REMARK   84  A    between atoms: _212  and  _214
REMARK   85  A    between atoms: _214  and  _215
REMARK   86  A    between atoms: _214  and  _217
REMARK   87  A    between atoms: _217  and  _218
REMARK   88  A    between atoms: _228  and  _230
REMARK   89  A    between atoms: _230  and  _231
REMARK   90  A    between atoms: _230  and  _233
REMARK   91  A    between atoms: _233  and  _234
REMARK   92  A    between atoms: _237  and  _239
REMARK   93  A    between atoms: _239  and  _240
REMARK   94  A    between atoms: _239  and  _242
REMARK   95  A    between atoms: _242  and  _243
REMARK   96  A    between atoms: _243  and  _244
REMARK   97  A    between atoms: _243  and  _245
REMARK   98  A    between atoms: _244  and  ZN_877
REMARK   99  A    between atoms: _245  and  ZN_876
REMARK  100  A    between atoms: _247  and  _248
REMARK  101  A    between atoms: _253  and  _255
REMARK  102  A    between atoms: _255  and  _256
REMARK  103  A    between atoms: _259  and  _261
REMARK  104  A    between atoms: _261  and  _262
REMARK  105  A    between atoms: _261  and  _264
REMARK  106  A    between atoms: _264  and  _265
REMARK  107  A    between atoms: _265  and  _266
REMARK  108  A    between atoms: _269  and  _271
REMARK  109  A    between atoms: _271  and  _272
REMARK  110  A    between atoms: _271  and  _274
REMARK  111  A    between atoms: _274  and  _275
REMARK  112  A    between atoms: _275  and  _276
REMARK  113  A    between atoms: _276  and  _278
REMARK  114  A    between atoms: _278  and  ZN_876
REMARK  115  A    between atoms: _279  and  _281
REMARK  116  A    between atoms: _281  and  _282
REMARK  117  A    between atoms: _281  and  _284
REMARK  118  A    between atoms: _284  and  _285
REMARK  119  A    between atoms: _291  and  _293
REMARK  120  A    between atoms: _293  and  _294
REMARK  121  A    between atoms: _296  and  _298
REMARK  122  A    between atoms: _298  and  _299
REMARK  123  A    between atoms: _298  and  _301
REMARK  124  A    between atoms: _301  and  _302
REMARK  125  A    between atoms: _305  and  _307
REMARK  126  A    between atoms: _307  and  _308
REMARK  127  A    between atoms: _307  and  _310
REMARK  128  A    between atoms: _310  and  _311
REMARK  129  A    between atoms: _314  and  _316
REMARK  130  A    between atoms: _316  and  _317
REMARK  131  A    between atoms: _316  and  _319
REMARK  132  A    between atoms: _319  and  _320
REMARK  133  A    between atoms: _325  and  _327
REMARK  134  A    between atoms: _327  and  _328
REMARK  135  A    between atoms: _327  and  _330
REMARK  136  A    between atoms: _330  and  _331
REMARK  137  A    between atoms: _331  and  _333
REMARK  138  A    between atoms: _333  and  ZN_877
REMARK  139  A    between atoms: _334  and  _336
REMARK  140  A    between atoms: _336  and  _337
REMARK  141  A    between atoms: _336  and  _339
REMARK  142  A    between atoms: _339  and  _340
REMARK  143  A    between atoms: _342  and  _344
REMARK  144  A    between atoms: _344  and  _345
REMARK  145  A    between atoms: _344  and  _347
REMARK  146  A    between atoms: _347  and  _348
REMARK  147  A    between atoms: _350  and  _352
REMARK  148  A    between atoms: _352  and  _353
REMARK  149  A    between atoms: _352  and  _355
REMARK  150  A    between atoms: _355  and  _356
REMARK  151  A    between atoms: _359  and  _361
REMARK  152  A    between atoms: _361  and  _362
REMARK  153  A    between atoms: _361  and  _364
REMARK  154  A    between atoms: _364  and  _365
REMARK  155  A    between atoms: _365  and  _366
REMARK  156  A    between atoms: _369  and  _371
REMARK  157  A    between atoms: _371  and  _372
REMARK  158  A    between atoms: _371  and  _374
REMARK  159  A    between atoms: _374  and  _375
REMARK  160  A    between atoms: _380  and  _381
REMARK  161  A    between atoms: _383  and  _385
REMARK  162  A    between atoms: _385  and  _386
REMARK  163  A    between atoms: _385  and  _388
REMARK  164  A    between atoms: _388  and  _389
REMARK  165  A    between atoms: _392  and  _394
REMARK  166  A    between atoms: _394  and  _395
REMARK  167  A    between atoms: _394  and  _397
REMARK  168  A    between atoms: _397  and  _398
REMARK  169  A    between atoms: _401  and  _403
REMARK  170  A    between atoms: _403  and  _404
REMARK  171  A    between atoms: _403  and  _406
REMARK  172  A    between atoms: _406  and  _407
REMARK  173  A    between atoms: _407  and  _408
REMARK  174  A    between atoms: _408  and  _409
REMARK  175  A    between atoms: _418  and  _420
REMARK  176  A    between atoms: _420  and  _421
REMARK  177  A    between atoms: _420  and  _423
REMARK  178  A    between atoms: _426  and  _428
REMARK  179  A    between atoms: _428  and  _429
REMARK  180  A    between atoms: _428  and  _431
REMARK  181  A    between atoms: _431  and  _432
REMARK  182  A    between atoms: _435  and  _437
REMARK  183  A    between atoms: _437  and  _438
REMARK  184  A    between atoms: _437  and  _440
REMARK  185  A    between atoms: _440  and  _441
REMARK  186  A    between atoms: _451  and  _453
REMARK  187  A    between atoms: _453  and  _454
REMARK  188  A    between atoms: _453  and  _456
REMARK  189  A    between atoms: _456  and  _457
REMARK  190  A    between atoms: _457  and  _458
REMARK  191  A    between atoms: _458  and  _459
REMARK  192  A    between atoms: _459  and  _460
REMARK  193  A    between atoms: _464  and  _466
REMARK  194  A    between atoms: _466  and  _467
REMARK  195  A    between atoms: _466  and  _469
REMARK  196  A    between atoms: _469  and  _470
REMARK  197  A    between atoms: _473  and  _474
REMARK  198  A    between atoms: _479  and  _481
REMARK  199  A    between atoms: _481  and  _482
REMARK  200  A    between atoms: _481  and  _484
REMARK  201  A    between atoms: _484  and  _485
REMARK  202  A    between atoms: _485  and  _486
REMARK  203  A    between atoms: _486  and  _487
REMARK  204  A    between atoms: _496  and  _498
REMARK  205  A    between atoms: _498  and  _499
REMARK  206  A    between atoms: _498  and  _501
REMARK  207  A    between atoms: _501  and  _502
REMARK  208  A    between atoms: _505  and  _507
REMARK  209  A    between atoms: _507  and  _508
REMARK  210  A    between atoms: _507  and  _510
REMARK  211  A    between atoms: _510  and  _511
REMARK  212  A    between atoms: _513  and  _515
REMARK  213  A    between atoms: _515  and  _516
REMARK  214  A    between atoms: _515  and  _518
REMARK  215  A    between atoms: _518  and  _519
REMARK  216  A    between atoms: _519  and  _520
REMARK  217  A    between atoms: _520  and  _521
REMARK  218  A    between atoms: _521  and  _522
REMARK  219  A    between atoms: _526  and  _528
REMARK  220  A    between atoms: _528  and  _529
REMARK  221  A    between atoms: _528  and  _531
REMARK  222  A    between atoms: _531  and  _532
REMARK  223  A    between atoms: _535  and  _537
REMARK  224  A    between atoms: _537  and  _538
REMARK  225  A    between atoms: _540  and  _542
REMARK  226  A    between atoms: _542  and  _543
REMARK  227  A    between atoms: _542  and  _545
REMARK  228  A    between atoms: _545  and  _546
REMARK  229  A    between atoms: _548  and  _550
REMARK  230  A    between atoms: _550  and  _551
REMARK  231  A    between atoms: _553  and  _555
REMARK  232  A    between atoms: _555  and  _556
REMARK  233  A    between atoms: _555  and  _558
REMARK  234  A    between atoms: _558  and  _559
REMARK  235  A    between atoms: _564  and  _566
REMARK  236  A    between atoms: _566  and  _567
REMARK  237  A    between atoms: _566  and  _569
REMARK  238  A    between atoms: _569  and  _570
REMARK  239  A    between atoms: _573  and  _575
REMARK  240  A    between atoms: _575  and  _576
REMARK  241  A    between atoms: _575  and  _578
REMARK  242  A    between atoms: _578  and  _579
REMARK  243  A    between atoms: _585  and  _587
REMARK  244  A    between atoms: _587  and  _588
REMARK  245  A    between atoms: _587  and  _590
REMARK  246  A    between atoms: _590  and  _591
REMARK  247  A    between atoms: _591  and  _592
REMARK  248  A    between atoms: _595  and  _597
REMARK  249  A    between atoms: _597  and  _598
REMARK  250  A    between atoms: _597  and  _600
REMARK  251  A    between atoms: _600  and  _601
REMARK  252  A    between atoms: _601  and  _602
REMARK  253  A    between atoms: _602  and  _603
REMARK  254  A    between atoms: _612  and  _614
REMARK  255  A    between atoms: _614  and  _615
REMARK  256  A    between atoms: _614  and  _617
REMARK  257  A    between atoms: _617  and  _618
REMARK  258  A    between atoms: _618  and  _619
REMARK  259  A    between atoms: _619  and  _620
REMARK  260  A    between atoms: _629  and  _631
REMARK  261  A    between atoms: _631  and  _632
REMARK  262  A    between atoms: _631  and  _634
REMARK  263  A    between atoms: _634  and  _635
REMARK  264  A    between atoms: _640  and  _641
REMARK  265  A    between atoms: _643  and  _645
REMARK  266  A    between atoms: _645  and  _646
REMARK  267  A    between atoms: _645  and  _648
REMARK  268  A    between atoms: _648  and  _649
REMARK  269  A    between atoms: _652  and  _654
REMARK  270  A    between atoms: _654  and  _655
REMARK  271  A    between atoms: _654  and  _657
REMARK  272  A    between atoms: _657  and  _658
REMARK  273  A    between atoms: _658  and  _659
REMARK  274  A    between atoms: _659  and  _660
REMARK  275  A    between atoms: _660  and  _661
REMARK  276  A    between atoms: _665  and  _667
REMARK  277  A    between atoms: _667  and  _668
REMARK  278  A    between atoms: _667  and  _670
REMARK  279  A    between atoms: _670  and  _671
REMARK  280  A    between atoms: _676  and  _678
REMARK  281  A    between atoms: _678  and  _679
REMARK  282  A    between atoms: _678  and  _681
REMARK  283  A    between atoms: _681  and  _682
REMARK  284  A    between atoms: _692  and  _694
REMARK  285  A    between atoms: _694  and  _695
REMARK  286  A    between atoms: _694  and  _697
REMARK  287  A    between atoms: _697  and  _698
REMARK  288  A    between atoms: _698  and  _699
REMARK  289  A    between atoms: _702  and  _704
REMARK  290  A    between atoms: _704  and  _705
REMARK  291  A    between atoms: _704  and  _707
REMARK  292  A    between atoms: _707  and  _708
REMARK  293  A    between atoms: _711  and  _713
REMARK  294  A    between atoms: _713  and  _714
REMARK  295  A    between atoms: _713  and  _716
REMARK  296  A    between atoms: _716  and  _717
REMARK  297  A    between atoms: _722  and  _724
REMARK  298  A    between atoms: _724  and  _725
REMARK  299  A    between atoms: _724  and  _727
REMARK  300  A    between atoms: _727  and  _728
REMARK  301  A    between atoms: _734  and  _736
REMARK  302  A    between atoms: _736  and  _737
REMARK  303  A    between atoms: _736  and  _739
REMARK  304  A    between atoms: _739  and  _740
REMARK  305  A    between atoms: _742  and  _744
REMARK  306  A    between atoms: _744  and  _745
REMARK  307  A    between atoms: _747  and  _749
REMARK  308  A    between atoms: _749  and  _750
REMARK  309  A    between atoms: _749  and  _752
REMARK  310  A    between atoms: _752  and  _753
REMARK  311  A    between atoms: _758  and  _759
REMARK  312  A    between atoms: _761  and  _763
REMARK  313  A    between atoms: _763  and  _764
REMARK  314  A    between atoms: _763  and  _766
REMARK  315  A    between atoms: _766  and  _767
REMARK  316  A    between atoms: _772  and  _773
REMARK  317  A    between atoms: _775  and  _777
REMARK  318  A    between atoms: _777  and  _778
REMARK  319  A    between atoms: _777  and  _780
REMARK  320  A    between atoms: _780  and  _781
REMARK  321  A    between atoms: _785  and  ZN_876
REMARK  322  A    between atoms: _786  and  _788
REMARK  323  A    between atoms: _788  and  _789
REMARK  324  A    between atoms: _788  and  _791
REMARK  325  A    between atoms: _791  and  _792
REMARK  326  A    between atoms: _792  and  _793
REMARK  327  A    between atoms: _796  and  _798
REMARK  328  A    between atoms: _798  and  _799
REMARK  329  A    between atoms: _798  and  _801
REMARK  330  A    between atoms: _801  and  _802
REMARK  331  A    between atoms: _802  and  _803
REMARK  332  A    between atoms: _803  and  _804
REMARK  333  A    between atoms: _813  and  _815
REMARK  334  A    between atoms: _815  and  _816
REMARK  335  A    between atoms: _815  and  _818
REMARK  336  A    between atoms: _818  and  _819
REMARK  337  A    between atoms: _824  and  _825
REMARK  338  A    between atoms: _827  and  _829
REMARK  339  A    between atoms: _829  and  _830
REMARK  340  A    between atoms: _829  and  _832
REMARK  341  A    between atoms: _832  and  _833
REMARK  342  A    between atoms: _838  and  _840
REMARK  343  A    between atoms: _840  and  _841
REMARK  344  A    between atoms: _840  and  _843
REMARK  345  A    between atoms: _843  and  _844
REMARK  346  A    between atoms: _844  and  _845
REMARK  347  A    between atoms: _845  and  _846
REMARK  348  A    between atoms: _846  and  _847
REMARK  349  A    between atoms: _851  and  _853
REMARK  350  A    between atoms: _853  and  _854
REMARK  351  A    between atoms: _853  and  _856
REMARK  352  A    between atoms: _856  and  _857
REMARK  353  A    between atoms: _862  and  _863
REMARK  354  A    between atoms: _865  and  _867
REMARK  355  A    between atoms: _867  and  _868
REMARK  356  A    between atoms: _871  and  _873
REMARK  357  A    between atoms: _873  and  _874
REMARK                            x       y       z     vdW  Elec       q    Type
REMARK                         _______ _______ _______ _____ _____    ______ ____
ROOT
ATOM      1  O   HOH     1       9.100  50.651  46.327  0.00  0.00    +0.000 OA
ENDROOT
TORSDOF 0
REMARK  Name = ../refined-set-2016/2xei/2xei_pocket.pdb
REMARK  357 active torsions:
REMARK  status: ('A' for Active; 'I' for Inactive)
REMARK    1  A    between atoms: _1  and  _3
REMARK    2  A    between atoms: _3  and  _4
REMARK    3  A    between atoms: _7  and  _9
REMARK    4  A    between atoms: _9  and  _10
REMARK    5  A    between atoms: _9  and  _12
REMARK    6  A    between atoms: _12  and  _13
REMARK    7  A    between atoms: _19  and  _21
REMARK    8  A    between atoms: _21  and  _22
REMARK    9  A    between atoms: _24  and  _26
REMARK   10  A    between atoms: _26  and  _27
REMARK   11  A    between atoms: _26  and  _29
REMARK   12  A    between atoms: _29  and  _30
REMARK   13  A    between atoms: _30  and  _31
REMARK   14  A    between atoms: _31  and  _32
REMARK   15  A    between atoms: _32  and  _33
REMARK   16  A    between atoms: _37  and  _39
REMARK   17  A    between atoms: _39  and  _40
REMARK   18  A    between atoms: _39  and  _42
REMARK   19  A    between atoms: _45  and  _47
REMARK   20  A    between atoms: _47  and  _48
REMARK   21  A    between atoms: _47  and  _50
REMARK   22  A    between atoms: _50  and  _51
REMARK   23  A    between atoms: _57  and  _59
REMARK   24  A    between atoms: _59  and  _60
REMARK   25  A    between atoms: _59  and  _62
REMARK   26  A    between atoms: _62  and  _63
REMARK   27  A    between atoms: _63  and  _64
REMARK   28  A    between atoms: _64  and  _65
REMARK   29  A    between atoms: _74  and  _76
REMARK   30  A    between atoms: _76  and  _77
REMARK   31  A    between atoms: _79  and  _81
REMARK   32  A    between atoms: _81  and  _82
REMARK   33  A    between atoms: _81  and  _84
REMARK   34  A    between atoms: _84  and  _85
REMARK   35  A    between atoms: _90  and  _91
REMARK   36  A    between atoms: _93  and  _95
REMARK   37  A    between atoms: _95  and  _96
REMARK   38  A    between atoms: _95  and  _98
REMARK   39  A    between atoms: _98  and  _99
REMARK   40  A    between atoms: _99  and  _100
REMARK   41  A    between atoms: _105  and  _107
REMARK   42  A    between atoms: _107  and  _108
REMARK   43  A    between atoms: _107  and  _110
REMARK   44  A    between atoms: _110  and  _111
REMARK   45  A    between atoms: _111  and  _112
REMARK   46  A    between atoms: _112  and  _113
REMARK   47  A    between atoms: _122  and  _124
REMARK   48  A    between atoms: _124  and  _125
REMARK   49  A    between atoms: _127  and  _129
REMARK   50  A    between atoms: _129  and  _130
REMARK   51  A    between atoms: _129  and  _132
REMARK   52  A    between atoms: _132  and  _133
REMARK   53  A    between atoms: _138  and  _140
REMARK   54  A    between atoms: _140  and  _141
REMARK   55  A    between atoms: _140  and  _143
REMARK   56  A    between atoms: _143  and  _144
REMARK   57  A    between atoms: _147  and  _149
REMARK   58  A    between atoms: _149  and  _150
REMARK   59  A    between atoms: _149  and  _152
REMARK   60  A    between atoms: _152  and  _153
REMARK   61  A    between atoms: _156  and  _158
REMARK   62  A    between atoms: _158  and  _159
REMARK   63  A    between atoms: _158  and  _161
REMARK   64  A    between atoms: _161  and  _162
REMARK   65  A    between atoms: _167  and  _169
REMARK   66  A    between atoms: _169  and  _170
REMARK   67  A    between atoms: _169  and  _172
REMARK   68  A    between atoms: _172  and  _173
REMARK   69  A    between atoms: _176  and  _178
REMARK   70  A    between atoms: _178  and  _179
REMARK   71  A    between atoms: _178  and  _181
REMARK   72  A    between atoms: _181  and  _182
REMARK   73  A    between atoms: _187  and  _189
REMARK   74  A    between atoms: _189  and  _190
REMARK   75  A    between atoms: _192  and  _194
REMARK   76  A    between atoms: _194  and  _195
REMARK   77  A    between atoms: _194  and  _197
REMARK   78  A    between atoms: _197  and  _198
REMARK   79  A    between atoms: _202  and  ZN_877
REMARK   80  A    between atoms: _203  and  _205
REMARK   81  A    between atoms: _205  and  _206
REMARK   82  A    between atoms: _205  and  _208
REMARK   83  A    between atoms: _208  and  _209
REMARK   84  A    between atoms: _212  and  _214
REMARK   85  A    between atoms: _214  and  _215
REMARK   86  A    between atoms: _214  and  _217
REMARK   87  A    between atoms: _217  and  _218
REMARK   88  A    between atoms: _228  and  _230
REMARK   89  A    between atoms: _230  and  _231
REMARK   90  A    between atoms: _230  and  _233
REMARK   91  A    between atoms: _233  and  _234
REMARK   92  A    between atoms: _237  and  _239
REMARK   93  A    between atoms: _239  and  _240
REMARK   94  A    between atoms: _239  and  _242
REMARK   95  A    between atoms: _242  and  _243
REMARK   96  A    between atoms: _243  and  _244
REMARK   97  A    between atoms: _243  and  _245
REMARK   98  A    between atoms: _244  and  ZN_877
REMARK   99  A    between atoms: _245  and  ZN_876
REMARK  100  A    between atoms: _247  and  _248
REMARK  101  A    between atoms: _253  and  _255
REMARK  102  A    between atoms: _255  and  _256
REMARK  103  A    between atoms: _259  and  _261
REMARK  104  A    between atoms: _261  and  _262
REMARK  105  A    between atoms: _261  and  _264
REMARK  106  A    between atoms: _264  and  _265
REMARK  107  A    between atoms: _265  and  _266
REMARK  108  A    between atoms: _269  and  _271
REMARK  109  A    between atoms: _271  and  _272
REMARK  110  A    between atoms: _271  and  _274
REMARK  111  A    between atoms: _274  and  _275
REMARK  112  A    between atoms: _275  and  _276
REMARK  113  A    between atoms: _276  and  _278
REMARK  114  A    between atoms: _278  and  ZN_876
REMARK  115  A    between atoms: _279  and  _281
REMARK  116  A    between atoms: _281  and  _282
REMARK  117  A    between atoms: _281  and  _284
REMARK  118  A    between atoms: _284  and  _285
REMARK  119  A    between atoms: _291  and  _293
REMARK  120  A    between atoms: _293  and  _294
REMARK  121  A    between atoms: _296  and  _298
REMARK  122  A    between atoms: _298  and  _299
REMARK  123  A    between atoms: _298  and  _301
REMARK  124  A    between atoms: _301  and  _302
REMARK  125  A    between atoms: _305  and  _307
REMARK  126  A    between atoms: _307  and  _308
REMARK  127  A    between atoms: _307  and  _310
REMARK  128  A    between atoms: _310  and  _311
REMARK  129  A    between atoms: _314  and  _316
REMARK  130  A    between atoms: _316  and  _317
REMARK  131  A    between atoms: _316  and  _319
REMARK  132  A    between atoms: _319  and  _320
REMARK  133  A    between atoms: _325  and  _327
REMARK  134  A    between atoms: _327  and  _328
REMARK  135  A    between atoms: _327  and  _330
REMARK  136  A    between atoms: _330  and  _331
REMARK  137  A    between atoms: _331  and  _333
REMARK  138  A    between atoms: _333  and  ZN_877
REMARK  139  A    between atoms: _334  and  _336
REMARK  140  A    between atoms: _336  and  _337
REMARK  141  A    between atoms: _336  and  _339
REMARK  142  A    between atoms: _339  and  _340
REMARK  143  A    between atoms: _342  and  _344
REMARK  144  A    between atoms: _344  and  _345
REMARK  145  A    between atoms: _344  and  _347
REMARK  146  A    between atoms: _347  and  _348
REMARK  147  A    between atoms: _350  and  _352
REMARK  148  A    between atoms: _352  and  _353
REMARK  149  A    between atoms: _352  and  _355
REMARK  150  A    between atoms: _355  and  _356
REMARK  151  A    between atoms: _359  and  _361
REMARK  152  A    between atoms: _361  and  _362
REMARK  153  A    between atoms: _361  and  _364
REMARK  154  A    between atoms: _364  and  _365
REMARK  155  A    between atoms: _365  and  _366
REMARK  156  A    between atoms: _369  and  _371
REMARK  157  A    between atoms: _371  and  _372
REMARK  158  A    between atoms: _371  and  _374
REMARK  159  A    between atoms: _374  and  _375
REMARK  160  A    between atoms: _380  and  _381
REMARK  161  A    between atoms: _383  and  _385
REMARK  162  A    between atoms: _385  and  _386
REMARK  163  A    between atoms: _385  and  _388
REMARK  164  A    between atoms: _388  and  _389
REMARK  165  A    between atoms: _392  and  _394
REMARK  166  A    between atoms: _394  and  _395
REMARK  167  A    between atoms: _394  and  _397
REMARK  168  A    between atoms: _397  and  _398
REMARK  169  A    between atoms: _401  and  _403
REMARK  170  A    between atoms: _403  and  _404
REMARK  171  A    between atoms: _403  and  _406
REMARK  172  A    between atoms: _406  and  _407
REMARK  173  A    between atoms: _407  and  _408
REMARK  174  A    between atoms: _408  and  _409
REMARK  175  A    between atoms: _418  and  _420
REMARK  176  A    between atoms: _420  and  _421
REMARK  177  A    between atoms: _420  and  _423
REMARK  178  A    between atoms: _426  and  _428
REMARK  179  A    between atoms: _428  and  _429
REMARK  180  A    between atoms: _428  and  _431
REMARK  181  A    between atoms: _431  and  _432
REMARK  182  A    between atoms: _435  and  _437
REMARK  183  A    between atoms: _437  and  _438
REMARK  184  A    between atoms: _437  and  _440
REMARK  185  A    between atoms: _440  and  _441
REMARK  186  A    between atoms: _451  and  _453
REMARK  187  A    between atoms: _453  and  _454
REMARK  188  A    between atoms: _453  and  _456
REMARK  189  A    between atoms: _456  and  _457
REMARK  190  A    between atoms: _457  and  _458
REMARK  191  A    between atoms: _458  and  _459
REMARK  192  A    between atoms: _459  and  _460
REMARK  193  A    between atoms: _464  and  _466
REMARK  194  A    between atoms: _466  and  _467
REMARK  195  A    between atoms: _466  and  _469
REMARK  196  A    between atoms: _469  and  _470
REMARK  197  A    between atoms: _473  and  _474
REMARK  198  A    between atoms: _479  and  _481
REMARK  199  A    between atoms: _481  and  _482
REMARK  200  A    between atoms: _481  and  _484
REMARK  201  A    between atoms: _484  and  _485
REMARK  202  A    between atoms: _485  and  _486
REMARK  203  A    between atoms: _486  and  _487
REMARK  204  A    between atoms: _496  and  _498
REMARK  205  A    between atoms: _498  and  _499
REMARK  206  A    between atoms: _498  and  _501
REMARK  207  A    between atoms: _501  and  _502
REMARK  208  A    between atoms: _505  and  _507
REMARK  209  A    between atoms: _507  and  _508
REMARK  210  A    between atoms: _507  and  _510
REMARK  211  A    between atoms: _510  and  _511
REMARK  212  A    between atoms: _513  and  _515
REMARK  213  A    between atoms: _515  and  _516
REMARK  214  A    between atoms: _515  and  _518
REMARK  215  A    between atoms: _518  and  _519
REMARK  216  A    between atoms: _519  and  _520
REMARK  217  A    between atoms: _520  and  _521
REMARK  218  A    between atoms: _521  and  _522
REMARK  219  A    between atoms: _526  and  _528
REMARK  220  A    between atoms: _528  and  _529
REMARK  221  A    between atoms: _528  and  _531
REMARK  222  A    between atoms: _531  and  _532
REMARK  223  A    between atoms: _535  and  _537
REMARK  224  A    between atoms: _537  and  _538
REMARK  225  A    between atoms: _540  and  _542
REMARK  226  A    between atoms: _542  and  _543
REMARK  227  A    between atoms: _542  and  _545
REMARK  228  A    between atoms: _545  and  _546
REMARK  229  A    between atoms: _548  and  _550
REMARK  230  A    between atoms: _550  and  _551
REMARK  231  A    between atoms: _553  and  _555
REMARK  232  A    between atoms: _555  and  _556
REMARK  233  A    between atoms: _555  and  _558
REMARK  234  A    between atoms: _558  and  _559
REMARK  235  A    between atoms: _564  and  _566
REMARK  236  A    between atoms: _566  and  _567
REMARK  237  A    between atoms: _566  and  _569
REMARK  238  A    between atoms: _569  and  _570
REMARK  239  A    between atoms: _573  and  _575
REMARK  240  A    between atoms: _575  and  _576
REMARK  241  A    between atoms: _575  and  _578
REMARK  242  A    between atoms: _578  and  _579
REMARK  243  A    between atoms: _585  and  _587
REMARK  244  A    between atoms: _587  and  _588
REMARK  245  A    between atoms: _587  and  _590
REMARK  246  A    between atoms: _590  and  _591
REMARK  247  A    between atoms: _591  and  _592
REMARK  248  A    between atoms: _595  and  _597
REMARK  249  A    between atoms: _597  and  _598
REMARK  250  A    between atoms: _597  and  _600
REMARK  251  A    between atoms: _600  and  _601
REMARK  252  A    between atoms: _601  and  _602
REMARK  253  A    between atoms: _602  and  _603
REMARK  254  A    between atoms: _612  and  _614
REMARK  255  A    between atoms: _614  and  _615
REMARK  256  A    between atoms: _614  and  _617
REMARK  257  A    between atoms: _617  and  _618
REMARK  258  A    between atoms: _618  and  _619
REMARK  259  A    between atoms: _619  and  _620
REMARK  260  A    between atoms: _629  and  _631
REMARK  261  A    between atoms: _631  and  _632
REMARK  262  A    between atoms: _631  and  _634
REMARK  263  A    between atoms: _634  and  _635
REMARK  264  A    between atoms: _640  and  _641
REMARK  265  A    between atoms: _643  and  _645
REMARK  266  A    between atoms: _645  and  _646
REMARK  267  A    between atoms: _645  and  _648
REMARK  268  A    between atoms: _648  and  _649
REMARK  269  A    between atoms: _652  and  _654
REMARK  270  A    between atoms: _654  and  _655
REMARK  271  A    between atoms: _654  and  _657
REMARK  272  A    between atoms: _657  and  _658
REMARK  273  A    between atoms: _658  and  _659
REMARK  274  A    between atoms: _659  and  _660
REMARK  275  A    between atoms: _660  and  _661
REMARK  276  A    between atoms: _665  and  _667
REMARK  277  A    between atoms: _667  and  _668
REMARK  278  A    between atoms: _667  and  _670
REMARK  279  A    between atoms: _670  and  _671
REMARK  280  A    between atoms: _676  and  _678
REMARK  281  A    between atoms: _678  and  _679
REMARK  282  A    between atoms: _678  and  _681
REMARK  283  A    between atoms: _681  and  _682
REMARK  284  A    between atoms: _692  and  _694
REMARK  285  A    between atoms: _694  and  _695
REMARK  286  A    between atoms: _694  and  _697
REMARK  287  A    between atoms: _697  and  _698
REMARK  288  A    between atoms: _698  and  _699
REMARK  289  A    between atoms: _702  and  _704
REMARK  290  A    between atoms: _704  and  _705
REMARK  291  A    between atoms: _704  and  _707
REMARK  292  A    between atoms: _707  and  _708
REMARK  293  A    between atoms: _711  and  _713
REMARK  294  A    between atoms: _713  and  _714
REMARK  295  A    between atoms: _713  and  _716
REMARK  296  A    between atoms: _716  and  _717
REMARK  297  A    between atoms: _722  and  _724
REMARK  298  A    between atoms: _724  and  _725
REMARK  299  A    between atoms: _724  and  _727
REMARK  300  A    between atoms: _727  and  _728
REMARK  301  A    between atoms: _734  and  _736
REMARK  302  A    between atoms: _736  and  _737
REMARK  303  A    between atoms: _736  and  _739
REMARK  304  A    between atoms: _739  and  _740
REMARK  305  A    between atoms: _742  and  _744
REMARK  306  A    between atoms: _744  and  _745
REMARK  307  A    between atoms: _747  and  _749
REMARK  308  A    between atoms: _749  and  _750
REMARK  309  A    between atoms: _749  and  _752
REMARK  310  A    between atoms: _752  and  _753
REMARK  311  A    between atoms: _758  and  _759
REMARK  312  A    between atoms: _761  and  _763
REMARK  313  A    between atoms: _763  and  _764
REMARK  314  A    between atoms: _763  and  _766
REMARK  315  A    between atoms: _766  and  _767
REMARK  316  A    between atoms: _772  and  _773
REMARK  317  A    between atoms: _775  and  _777
REMARK  318  A    between atoms: _777  and  _778
REMARK  319  A    between atoms: _777  and  _780
REMARK  320  A    between atoms: _780  and  _781
REMARK  321  A    between atoms: _785  and  ZN_876
REMARK  322  A    between atoms: _786  and  _788
REMARK  323  A    between atoms: _788  and  _789
REMARK  324  A    between atoms: _788  and  _791
REMARK  325  A    between atoms: _791  and  _792
REMARK  326  A    between atoms: _792  and  _793
REMARK  327  A    between atoms: _796  and  _798
REMARK  328  A    between atoms: _798  and  _799
REMARK  329  A    between atoms: _798  and  _801
REMARK  330  A    between atoms: _801  and  _802
REMARK  331  A    between atoms: _802  and  _803
REMARK  332  A    between atoms: _803  and  _804
REMARK  333  A    between atoms: _813  and  _815
REMARK  334  A    between atoms: _815  and  _816
REMARK  335  A    between atoms: _815  and  _818
REMARK  336  A    between atoms: _818  and  _819
REMARK  337  A    between atoms: _824  and  _825
REMARK  338  A    between atoms: _827  and  _829
REMARK  339  A    between atoms: _829  and  _830
REMARK  340  A    between atoms: _829  and  _832
REMARK  341  A    between atoms: _832  and  _833
REMARK  342  A    between atoms: _838  and  _840
REMARK  343  A    between atoms: _840  and  _841
REMARK  344  A    between atoms: _840  and  _843
REMARK  345  A    between atoms: _843  and  _844
REMARK  346  A    between atoms: _844  and  _845
REMARK  347  A    between atoms: _845  and  _846
REMARK  348  A    between atoms: _846  and  _847
REMARK  349  A    between atoms: _851  and  _853
REMARK  350  A    between atoms: _853  and  _854
REMARK  351  A    between atoms: _853  and  _856
REMARK  352  A    between atoms: _856  and  _857
REMARK  353  A    between atoms: _862  and  _863
REMARK  354  A    between atoms: _865  and  _867
REMARK  355  A    between atoms: _867  and  _868
REMARK  356  A    between atoms: _871  and  _873
REMARK  357  A    between atoms: _873  and  _874
REMARK                            x       y       z     vdW  Elec       q    Type
REMARK                         _______ _______ _______ _____ _____    ______ ____
ROOT
ATOM      1  O   HOH     1      26.421  42.311  40.502  0.00  0.00    +0.000 OA
ENDROOT
TORSDOF 0
REMARK  Name = ../refined-set-2016/2xei/2xei_pocket.pdb
REMARK  357 active torsions:
REMARK  status: ('A' for Active; 'I' for Inactive)
REMARK    1  A    between atoms: _1  and  _3
REMARK    2  A    between atoms: _3  and  _4
REMARK    3  A    between atoms: _7  and  _9
REMARK    4  A    between atoms: _9  and  _10
REMARK    5  A    between atoms: _9  and  _12
REMARK    6  A    between atoms: _12  and  _13
REMARK    7  A    between atoms: _19  and  _21
REMARK    8  A    between atoms: _21  and  _22
REMARK    9  A    between atoms: _24  and  _26
REMARK   10  A    between atoms: _26  and  _27
REMARK   11  A    between atoms: _26  and  _29
REMARK   12  A    between atoms: _29  and  _30
REMARK   13  A    between atoms: _30  and  _31
REMARK   14  A    between atoms: _31  and  _32
REMARK   15  A    between atoms: _32  and  _33
REMARK   16  A    between atoms: _37  and  _39
REMARK   17  A    between atoms: _39  and  _40
REMARK   18  A    between atoms: _39  and  _42
REMARK   19  A    between atoms: _45  and  _47
REMARK   20  A    between atoms: _47  and  _48
REMARK   21  A    between atoms: _47  and  _50
REMARK   22  A    between atoms: _50  and  _51
REMARK   23  A    between atoms: _57  and  _59
REMARK   24  A    between atoms: _59  and  _60
REMARK   25  A    between atoms: _59  and  _62
REMARK   26  A    between atoms: _62  and  _63
REMARK   27  A    between atoms: _63  and  _64
REMARK   28  A    between atoms: _64  and  _65
REMARK   29  A    between atoms: _74  and  _76
REMARK   30  A    between atoms: _76  and  _77
REMARK   31  A    between atoms: _79  and  _81
REMARK   32  A    between atoms: _81  and  _82
REMARK   33  A    between atoms: _81  and  _84
REMARK   34  A    between atoms: _84  and  _85
REMARK   35  A    between atoms: _90  and  _91
REMARK   36  A    between atoms: _93  and  _95
REMARK   37  A    between atoms: _95  and  _96
REMARK   38  A    between atoms: _95  and  _98
REMARK   39  A    between atoms: _98  and  _99
REMARK   40  A    between atoms: _99  and  _100
REMARK   41  A    between atoms: _105  and  _107
REMARK   42  A    between atoms: _107  and  _108
REMARK   43  A    between atoms: _107  and  _110
REMARK   44  A    between atoms: _110  and  _111
REMARK   45  A    between atoms: _111  and  _112
REMARK   46  A    between atoms: _112  and  _113
REMARK   47  A    between atoms: _122  and  _124
REMARK   48  A    between atoms: _124  and  _125
REMARK   49  A    between atoms: _127  and  _129
REMARK   50  A    between atoms: _129  and  _130
REMARK   51  A    between atoms: _129  and  _132
REMARK   52  A    between atoms: _132  and  _133
REMARK   53  A    between atoms: _138  and  _140
REMARK   54  A    between atoms: _140  and  _141
REMARK   55  A    between atoms: _140  and  _143
REMARK   56  A    between atoms: _143  and  _144
REMARK   57  A    between atoms: _147  and  _149
REMARK   58  A    between atoms: _149  and  _150
REMARK   59  A    between atoms: _149  and  _152
REMARK   60  A    between atoms: _152  and  _153
REMARK   61  A    between atoms: _156  and  _158
REMARK   62  A    between atoms: _158  and  _159
REMARK   63  A    between atoms: _158  and  _161
REMARK   64  A    between atoms: _161  and  _162
REMARK   65  A    between atoms: _167  and  _169
REMARK   66  A    between atoms: _169  and  _170
REMARK   67  A    between atoms: _169  and  _172
REMARK   68  A    between atoms: _172  and  _173
REMARK   69  A    between atoms: _176  and  _178
REMARK   70  A    between atoms: _178  and  _179
REMARK   71  A    between atoms: _178  and  _181
REMARK   72  A    between atoms: _181  and  _182
REMARK   73  A    between atoms: _187  and  _189
REMARK   74  A    between atoms: _189  and  _190
REMARK   75  A    between atoms: _192  and  _194
REMARK   76  A    between atoms: _194  and  _195
REMARK   77  A    between atoms: _194  and  _197
REMARK   78  A    between atoms: _197  and  _198
REMARK   79  A    between atoms: _202  and  ZN_877
REMARK   80  A    between atoms: _203  and  _205
REMARK   81  A    between atoms: _205  and  _206
REMARK   82  A    between atoms: _205  and  _208
REMARK   83  A    between atoms: _208  and  _209
REMARK   84  A    between atoms: _212  and  _214
REMARK   85  A    between atoms: _214  and  _215
REMARK   86  A    between atoms: _214  and  _217
REMARK   87  A    between atoms: _217  and  _218
REMARK   88  A    between atoms: _228  and  _230
REMARK   89  A    between atoms: _230  and  _231
REMARK   90  A    between atoms: _230  and  _233
REMARK   91  A    between atoms: _233  and  _234
REMARK   92  A    between atoms: _237  and  _239
REMARK   93  A    between atoms: _239  and  _240
REMARK   94  A    between atoms: _239  and  _242
REMARK   95  A    between atoms: _242  and  _243
REMARK   96  A    between atoms: _243  and  _244
REMARK   97  A    between atoms: _243  and  _245
REMARK   98  A    between atoms: _244  and  ZN_877
REMARK   99  A    between atoms: _245  and  ZN_876
REMARK  100  A    between atoms: _247  and  _248
REMARK  101  A    between atoms: _253  and  _255
REMARK  102  A    between atoms: _255  and  _256
REMARK  103  A    between atoms: _259  and  _261
REMARK  104  A    between atoms: _261  and  _262
REMARK  105  A    between atoms: _261  and  _264
REMARK  106  A    between atoms: _264  and  _265
REMARK  107  A    between atoms: _265  and  _266
REMARK  108  A    between atoms: _269  and  _271
REMARK  109  A    between atoms: _271  and  _272
REMARK  110  A    between atoms: _271  and  _274
REMARK  111  A    between atoms: _274  and  _275
REMARK  112  A    between atoms: _275  and  _276
REMARK  113  A    between atoms: _276  and  _278
REMARK  114  A    between atoms: _278  and  ZN_876
REMARK  115  A    between atoms: _279  and  _281
REMARK  116  A    between atoms: _281  and  _282
REMARK  117  A    between atoms: _281  and  _284
REMARK  118  A    between atoms: _284  and  _285
REMARK  119  A    between atoms: _291  and  _293
REMARK  120  A    between atoms: _293  and  _294
REMARK  121  A    between atoms: _296  and  _298
REMARK  122  A    between atoms: _298  and  _299
REMARK  123  A    between atoms: _298  and  _301
REMARK  124  A    between atoms: _301  and  _302
REMARK  125  A    between atoms: _305  and  _307
REMARK  126  A    between atoms: _307  and  _308
REMARK  127  A    between atoms: _307  and  _310
REMARK  128  A    between atoms: _310  and  _311
REMARK  129  A    between atoms: _314  and  _316
REMARK  130  A    between atoms: _316  and  _317
REMARK  131  A    between atoms: _316  and  _319
REMARK  132  A    between atoms: _319  and  _320
REMARK  133  A    between atoms: _325  and  _327
REMARK  134  A    between atoms: _327  and  _328
REMARK  135  A    between atoms: _327  and  _330
REMARK  136  A    between atoms: _330  and  _331
REMARK  137  A    between atoms: _331  and  _333
REMARK  138  A    between atoms: _333  and  ZN_877
REMARK  139  A    between atoms: _334  and  _336
REMARK  140  A    between atoms: _336  and  _337
REMARK  141  A    between atoms: _336  and  _339
REMARK  142  A    between atoms: _339  and  _340
REMARK  143  A    between atoms: _342  and  _344
REMARK  144  A    between atoms: _344  and  _345
REMARK  145  A    between atoms: _344  and  _347
REMARK  146  A    between atoms: _347  and  _348
REMARK  147  A    between atoms: _350  and  _352
REMARK  148  A    between atoms: _352  and  _353
REMARK  149  A    between atoms: _352  and  _355
REMARK  150  A    between atoms: _355  and  _356
REMARK  151  A    between atoms: _359  and  _361
REMARK  152  A    between atoms: _361  and  _362
REMARK  153  A    between atoms: _361  and  _364
REMARK  154  A    between atoms: _364  and  _365
REMARK  155  A    between atoms: _365  and  _366
REMARK  156  A    between atoms: _369  and  _371
REMARK  157  A    between atoms: _371  and  _372
REMARK  158  A    between atoms: _371  and  _374
REMARK  159  A    between atoms: _374  and  _375
REMARK  160  A    between atoms: _380  and  _381
REMARK  161  A    between atoms: _383  and  _385
REMARK  162  A    between atoms: _385  and  _386
REMARK  163  A    between atoms: _385  and  _388
REMARK  164  A    between atoms: _388  and  _389
REMARK  165  A    between atoms: _392  and  _394
REMARK  166  A    between atoms: _394  and  _395
REMARK  167  A    between atoms: _394  and  _397
REMARK  168  A    between atoms: _397  and  _398
REMARK  169  A    between atoms: _401  and  _403
REMARK  170  A    between atoms: _403  and  _404
REMARK  171  A    between atoms: _403  and  _406
REMARK  172  A    between atoms: _406  and  _407
REMARK  173  A    between atoms: _407  and  _408
REMARK  174  A    between atoms: _408  and  _409
REMARK  175  A    between atoms: _418  and  _420
REMARK  176  A    between atoms: _420  and  _421
REMARK  177  A    between atoms: _420  and  _423
REMARK  178  A    between atoms: _426  and  _428
REMARK  179  A    between atoms: _428  and  _429
REMARK  180  A    between atoms: _428  and  _431
REMARK  181  A    between atoms: _431  and  _432
REMARK  182  A    between atoms: _435  and  _437
REMARK  183  A    between atoms: _437  and  _438
REMARK  184  A    between atoms: _437  and  _440
REMARK  185  A    between atoms: _440  and  _441
REMARK  186  A    between atoms: _451  and  _453
REMARK  187  A    between atoms: _453  and  _454
REMARK  188  A    between atoms: _453  and  _456
REMARK  189  A    between atoms: _456  and  _457
REMARK  190  A    between atoms: _457  and  _458
REMARK  191  A    between atoms: _458  and  _459
REMARK  192  A    between atoms: _459  and  _460
REMARK  193  A    between atoms: _464  and  _466
REMARK  194  A    between atoms: _466  and  _467
REMARK  195  A    between atoms: _466  and  _469
REMARK  196  A    between atoms: _469  and  _470
REMARK  197  A    between atoms: _473  and  _474
REMARK  198  A    between atoms: _479  and  _481
REMARK  199  A    between atoms: _481  and  _482
REMARK  200  A    between atoms: _481  and  _484
REMARK  201  A    between atoms: _484  and  _485
REMARK  202  A    between atoms: _485  and  _486
REMARK  203  A    between atoms: _486  and  _487
REMARK  204  A    between atoms: _496  and  _498
REMARK  205  A    between atoms: _498  and  _499
REMARK  206  A    between atoms: _498  and  _501
REMARK  207  A    between atoms: _501  and  _502
REMARK  208  A    between atoms: _505  and  _507
REMARK  209  A    between atoms: _507  and  _508
REMARK  210  A    between atoms: _507  and  _510
REMARK  211  A    between atoms: _510  and  _511
REMARK  212  A    between atoms: _513  and  _515
REMARK  213  A    between atoms: _515  and  _516
REMARK  214  A    between atoms: _515  and  _518
REMARK  215  A    between atoms: _518  and  _519
REMARK  216  A    between atoms: _519  and  _520
REMARK  217  A    between atoms: _520  and  _521
REMARK  218  A    between atoms: _521  and  _522
REMARK  219  A    between atoms: _526  and  _528
REMARK  220  A    between atoms: _528  and  _529
REMARK  221  A    between atoms: _528  and  _531
REMARK  222  A    between atoms: _531  and  _532
REMARK  223  A    between atoms: _535  and  _537
REMARK  224  A    between atoms: _537  and  _538
REMARK  225  A    between atoms: _540  and  _542
REMARK  226  A    between atoms: _542  and  _543
REMARK  227  A    between atoms: _542  and  _545
REMARK  228  A    between atoms: _545  and  _546
REMARK  229  A    between atoms: _548  and  _550
REMARK  230  A    between atoms: _550  and  _551
REMARK  231  A    between atoms: _553  and  _555
REMARK  232  A    between atoms: _555  and  _556
REMARK  233  A    between atoms: _555  and  _558
REMARK  234  A    between atoms: _558  and  _559
REMARK  235  A    between atoms: _564  and  _566
REMARK  236  A    between atoms: _566  and  _567
REMARK  237  A    between atoms: _566  and  _569
REMARK  238  A    between atoms: _569  and  _570
REMARK  239  A    between atoms: _573  and  _575
REMARK  240  A    between atoms: _575  and  _576
REMARK  241  A    between atoms: _575  and  _578
REMARK  242  A    between atoms: _578  and  _579
REMARK  243  A    between atoms: _585  and  _587
REMARK  244  A    between atoms: _587  and  _588
REMARK  245  A    between atoms: _587  and  _590
REMARK  246  A    between atoms: _590  and  _591
REMARK  247  A    between atoms: _591  and  _592
REMARK  248  A    between atoms: _595  and  _597
REMARK  249  A    between atoms: _597  and  _598
REMARK  250  A    between atoms: _597  and  _600
REMARK  251  A    between atoms: _600  and  _601
REMARK  252  A    between atoms: _601  and  _602
REMARK  253  A    between atoms: _602  and  _603
REMARK  254  A    between atoms: _612  and  _614
REMARK  255  A    between atoms: _614  and  _615
REMARK  256  A    between atoms: _614  and  _617
REMARK  257  A    between atoms: _617  and  _618
REMARK  258  A    between atoms: _618  and  _619
REMARK  259  A    between atoms: _619  and  _620
REMARK  260  A    between atoms: _629  and  _631
REMARK  261  A    between atoms: _631  and  _632
REMARK  262  A    between atoms: _631  and  _634
REMARK  263  A    between atoms: _634  and  _635
REMARK  264  A    between atoms: _640  and  _641
REMARK  265  A    between atoms: _643  and  _645
REMARK  266  A    between atoms: _645  and  _646
REMARK  267  A    between atoms: _645  and  _648
REMARK  268  A    between atoms: _648  and  _649
REMARK  269  A    between atoms: _652  and  _654
REMARK  270  A    between atoms: _654  and  _655
REMARK  271  A    between atoms: _654  and  _657
REMARK  272  A    between atoms: _657  and  _658
REMARK  273  A    between atoms: _658  and  _659
REMARK  274  A    between atoms: _659  and  _660
REMARK  275  A    between atoms: _660  and  _661
REMARK  276  A    between atoms: _665  and  _667
REMARK  277  A    between atoms: _667  and  _668
REMARK  278  A    between atoms: _667  and  _670
REMARK  279  A    between atoms: _670  and  _671
REMARK  280  A    between atoms: _676  and  _678
REMARK  281  A    between atoms: _678  and  _679
REMARK  282  A    between atoms: _678  and  _681
REMARK  283  A    between atoms: _681  and  _682
REMARK  284  A    between atoms: _692  and  _694
REMARK  285  A    between atoms: _694  and  _695
REMARK  286  A    between atoms: _694  and  _697
REMARK  287  A    between atoms: _697  and  _698
REMARK  288  A    between atoms: _698  and  _699
REMARK  289  A    between atoms: _702  and  _704
REMARK  290  A    between atoms: _704  and  _705
REMARK  291  A    between atoms: _704  and  _707
REMARK  292  A    between atoms: _707  and  _708
REMARK  293  A    between atoms: _711  and  _713
REMARK  294  A    between atoms: _713  and  _714
REMARK  295  A    between atoms: _713  and  _716
REMARK  296  A    between atoms: _716  and  _717
REMARK  297  A    between atoms: _722  and  _724
REMARK  298  A    between atoms: _724  and  _725
REMARK  299  A    between atoms: _724  and  _727
REMARK  300  A    between atoms: _727  and  _728
REMARK  301  A    between atoms: _734  and  _736
REMARK  302  A    between atoms: _736  and  _737
REMARK  303  A    between atoms: _736  and  _739
REMARK  304  A    between atoms: _739  and  _740
REMARK  305  A    between atoms: _742  and  _744
REMARK  306  A    between atoms: _744  and  _745
REMARK  307  A    between atoms: _747  and  _749
REMARK  308  A    between atoms: _749  and  _750
REMARK  309  A    between atoms: _749  and  _752
REMARK  310  A    between atoms: _752  and  _753
REMARK  311  A    between atoms: _758  and  _759
REMARK  312  A    between atoms: _761  and  _763
REMARK  313  A    between atoms: _763  and  _764
REMARK  314  A    between atoms: _763  and  _766
REMARK  315  A    between atoms: _766  and  _767
REMARK  316  A    between atoms: _772  and  _773
REMARK  317  A    between atoms: _775  and  _777
REMARK  318  A    between atoms: _777  and  _778
REMARK  319  A    between atoms: _777  and  _780
REMARK  320  A    between atoms: _780  and  _781
REMARK  321  A    between atoms: _785  and  ZN_876
REMARK  322  A    between atoms: _786  and  _788
REMARK  323  A    between atoms: _788  and  _789
REMARK  324  A    between atoms: _788  and  _791
REMARK  325  A    between atoms: _791  and  _792
REMARK  326  A    between atoms: _792  and  _793
REMARK  327  A    between atoms: _796  and  _798
REMARK  328  A    between atoms: _798  and  _799
REMARK  329  A    between atoms: _798  and  _801
REMARK  330  A    between atoms: _801  and  _802
REMARK  331  A    between atoms: _802  and  _803
REMARK  332  A    between atoms: _803  and  _804
REMARK  333  A    between atoms: _813  and  _815
REMARK  334  A    between atoms: _815  and  _816
REMARK  335  A    between atoms: _815  and  _818
REMARK  336  A    between atoms: _818  and  _819
REMARK  337  A    between atoms: _824  and  _825
REMARK  338  A    between atoms: _827  and  _829
REMARK  339  A    between atoms: _829  and  _830
REMARK  340  A    between atoms: _829  and  _832
REMARK  341  A    between atoms: _832  and  _833
REMARK  342  A    between atoms: _838  and  _840
REMARK  343  A    between atoms: _840  and  _841
REMARK  344  A    between atoms: _840  and  _843
REMARK  345  A    between atoms: _843  and  _844
REMARK  346  A    between atoms: _844  and  _845
REMARK  347  A    between atoms: _845  and  _846
REMARK  348  A    between atoms: _846  and  _847
REMARK  349  A    between atoms: _851  and  _853
REMARK  350  A    between atoms: _853  and  _854
REMARK  351  A    between atoms: _853  and  _856
REMARK  352  A    between atoms: _856  and  _857
REMARK  353  A    between atoms: _862  and  _863
REMARK  354  A    between atoms: _865  and  _867
REMARK  355  A    between atoms: _867  and  _868
REMARK  356  A    between atoms: _871  and  _873
REMARK  357  A    between atoms: _873  and  _874
REMARK                            x       y       z     vdW  Elec       q    Type
REMARK                         _______ _______ _______ _____ _____    ______ ____
ROOT
ATOM      1  O   HOH     1      24.873  42.914  42.870  0.00  0.00    +0.000 OA
ENDROOT
TORSDOF 0
REMARK  Name = ../refined-set-2016/2xei/2xei_pocket.pdb
REMARK  357 active torsions:
REMARK  status: ('A' for Active; 'I' for Inactive)
REMARK    1  A    between atoms: _1  and  _3
REMARK    2  A    between atoms: _3  and  _4
REMARK    3  A    between atoms: _7  and  _9
REMARK    4  A    between atoms: _9  and  _10
REMARK    5  A    between atoms: _9  and  _12
REMARK    6  A    between atoms: _12  and  _13
REMARK    7  A    between atoms: _19  and  _21
REMARK    8  A    between atoms: _21  and  _22
REMARK    9  A    between atoms: _24  and  _26
REMARK   10  A    between atoms: _26  and  _27
REMARK   11  A    between atoms: _26  and  _29
REMARK   12  A    between atoms: _29  and  _30
REMARK   13  A    between atoms: _30  and  _31
REMARK   14  A    between atoms: _31  and  _32
REMARK   15  A    between atoms: _32  and  _33
REMARK   16  A    between atoms: _37  and  _39
REMARK   17  A    between atoms: _39  and  _40
REMARK   18  A    between atoms: _39  and  _42
REMARK   19  A    between atoms: _45  and  _47
REMARK   20  A    between atoms: _47  and  _48
REMARK   21  A    between atoms: _47  and  _50
REMARK   22  A    between atoms: _50  and  _51
REMARK   23  A    between atoms: _57  and  _59
REMARK   24  A    between atoms: _59  and  _60
REMARK   25  A    between atoms: _59  and  _62
REMARK   26  A    between atoms: _62  and  _63
REMARK   27  A    between atoms: _63  and  _64
REMARK   28  A    between atoms: _64  and  _65
REMARK   29  A    between atoms: _74  and  _76
REMARK   30  A    between atoms: _76  and  _77
REMARK   31  A    between atoms: _79  and  _81
REMARK   32  A    between atoms: _81  and  _82
REMARK   33  A    between atoms: _81  and  _84
REMARK   34  A    between atoms: _84  and  _85
REMARK   35  A    between atoms: _90  and  _91
REMARK   36  A    between atoms: _93  and  _95
REMARK   37  A    between atoms: _95  and  _96
REMARK   38  A    between atoms: _95  and  _98
REMARK   39  A    between atoms: _98  and  _99
REMARK   40  A    between atoms: _99  and  _100
REMARK   41  A    between atoms: _105  and  _107
REMARK   42  A    between atoms: _107  and  _108
REMARK   43  A    between atoms: _107  and  _110
REMARK   44  A    between atoms: _110  and  _111
REMARK   45  A    between atoms: _111  and  _112
REMARK   46  A    between atoms: _112  and  _113
REMARK   47  A    between atoms: _122  and  _124
REMARK   48  A    between atoms: _124  and  _125
REMARK   49  A    between atoms: _127  and  _129
REMARK   50  A    between atoms: _129  and  _130
REMARK   51  A    between atoms: _129  and  _132
REMARK   52  A    between atoms: _132  and  _133
REMARK   53  A    between atoms: _138  and  _140
REMARK   54  A    between atoms: _140  and  _141
REMARK   55  A    between atoms: _140  and  _143
REMARK   56  A    between atoms: _143  and  _144
REMARK   57  A    between atoms: _147  and  _149
REMARK   58  A    between atoms: _149  and  _150
REMARK   59  A    between atoms: _149  and  _152
REMARK   60  A    between atoms: _152  and  _153
REMARK   61  A    between atoms: _156  and  _158
REMARK   62  A    between atoms: _158  and  _159
REMARK   63  A    between atoms: _158  and  _161
REMARK   64  A    between atoms: _161  and  _162
REMARK   65  A    between atoms: _167  and  _169
REMARK   66  A    between atoms: _169  and  _170
REMARK   67  A    between atoms: _169  and  _172
REMARK   68  A    between atoms: _172  and  _173
REMARK   69  A    between atoms: _176  and  _178
REMARK   70  A    between atoms: _178  and  _179
REMARK   71  A    between atoms: _178  and  _181
REMARK   72  A    between atoms: _181  and  _182
REMARK   73  A    between atoms: _187  and  _189
REMARK   74  A    between atoms: _189  and  _190
REMARK   75  A    between atoms: _192  and  _194
REMARK   76  A    between atoms: _194  and  _195
REMARK   77  A    between atoms: _194  and  _197
REMARK   78  A    between atoms: _197  and  _198
REMARK   79  A    between atoms: _202  and  ZN_877
REMARK   80  A    between atoms: _203  and  _205
REMARK   81  A    between atoms: _205  and  _206
REMARK   82  A    between atoms: _205  and  _208
REMARK   83  A    between atoms: _208  and  _209
REMARK   84  A    between atoms: _212  and  _214
REMARK   85  A    between atoms: _214  and  _215
REMARK   86  A    between atoms: _214  and  _217
REMARK   87  A    between atoms: _217  and  _218
REMARK   88  A    between atoms: _228  and  _230
REMARK   89  A    between atoms: _230  and  _231
REMARK   90  A    between atoms: _230  and  _233
REMARK   91  A    between atoms: _233  and  _234
REMARK   92  A    between atoms: _237  and  _239
REMARK   93  A    between atoms: _239  and  _240
REMARK   94  A    between atoms: _239  and  _242
REMARK   95  A    between atoms: _242  and  _243
REMARK   96  A    between atoms: _243  and  _244
REMARK   97  A    between atoms: _243  and  _245
REMARK   98  A    between atoms: _244  and  ZN_877
REMARK   99  A    between atoms: _245  and  ZN_876
REMARK  100  A    between atoms: _247  and  _248
REMARK  101  A    between atoms: _253  and  _255
REMARK  102  A    between atoms: _255  and  _256
REMARK  103  A    between atoms: _259  and  _261
REMARK  104  A    between atoms: _261  and  _262
REMARK  105  A    between atoms: _261  and  _264
REMARK  106  A    between atoms: _264  and  _265
REMARK  107  A    between atoms: _265  and  _266
REMARK  108  A    between atoms: _269  and  _271
REMARK  109  A    between atoms: _271  and  _272
REMARK  110  A    between atoms: _271  and  _274
REMARK  111  A    between atoms: _274  and  _275
REMARK  112  A    between atoms: _275  and  _276
REMARK  113  A    between atoms: _276  and  _278
REMARK  114  A    between atoms: _278  and  ZN_876
REMARK  115  A    between atoms: _279  and  _281
REMARK  116  A    between atoms: _281  and  _282
REMARK  117  A    between atoms: _281  and  _284
REMARK  118  A    between atoms: _284  and  _285
REMARK  119  A    between atoms: _291  and  _293
REMARK  120  A    between atoms: _293  and  _294
REMARK  121  A    between atoms: _296  and  _298
REMARK  122  A    between atoms: _298  and  _299
REMARK  123  A    between atoms: _298  and  _301
REMARK  124  A    between atoms: _301  and  _302
REMARK  125  A    between atoms: _305  and  _307
REMARK  126  A    between atoms: _307  and  _308
REMARK  127  A    between atoms: _307  and  _310
REMARK  128  A    between atoms: _310  and  _311
REMARK  129  A    between atoms: _314  and  _316
REMARK  130  A    between atoms: _316  and  _317
REMARK  131  A    between atoms: _316  and  _319
REMARK  132  A    between atoms: _319  and  _320
REMARK  133  A    between atoms: _325  and  _327
REMARK  134  A    between atoms: _327  and  _328
REMARK  135  A    between atoms: _327  and  _330
REMARK  136  A    between atoms: _330  and  _331
REMARK  137  A    between atoms: _331  and  _333
REMARK  138  A    between atoms: _333  and  ZN_877
REMARK  139  A    between atoms: _334  and  _336
REMARK  140  A    between atoms: _336  and  _337
REMARK  141  A    between atoms: _336  and  _339
REMARK  142  A    between atoms: _339  and  _340
REMARK  143  A    between atoms: _342  and  _344
REMARK  144  A    between atoms: _344  and  _345
REMARK  145  A    between atoms: _344  and  _347
REMARK  146  A    between atoms: _347  and  _348
REMARK  147  A    between atoms: _350  and  _352
REMARK  148  A    between atoms: _352  and  _353
REMARK  149  A    between atoms: _352  and  _355
REMARK  150  A    between atoms: _355  and  _356
REMARK  151  A    between atoms: _359  and  _361
REMARK  152  A    between atoms: _361  and  _362
REMARK  153  A    between atoms: _361  and  _364
REMARK  154  A    between atoms: _364  and  _365
REMARK  155  A    between atoms: _365  and  _366
REMARK  156  A    between atoms: _369  and  _371
REMARK  157  A    between atoms: _371  and  _372
REMARK  158  A    between atoms: _371  and  _374
REMARK  159  A    between atoms: _374  and  _375
REMARK  160  A    between atoms: _380  and  _381
REMARK  161  A    between atoms: _383  and  _385
REMARK  162  A    between atoms: _385  and  _386
REMARK  163  A    between atoms: _385  and  _388
REMARK  164  A    between atoms: _388  and  _389
REMARK  165  A    between atoms: _392  and  _394
REMARK  166  A    between atoms: _394  and  _395
REMARK  167  A    between atoms: _394  and  _397
REMARK  168  A    between atoms: _397  and  _398
REMARK  169  A    between atoms: _401  and  _403
REMARK  170  A    between atoms: _403  and  _404
REMARK  171  A    between atoms: _403  and  _406
REMARK  172  A    between atoms: _406  and  _407
REMARK  173  A    between atoms: _407  and  _408
REMARK  174  A    between atoms: _408  and  _409
REMARK  175  A    between atoms: _418  and  _420
REMARK  176  A    between atoms: _420  and  _421
REMARK  177  A    between atoms: _420  and  _423
REMARK  178  A    between atoms: _426  and  _428
REMARK  179  A    between atoms: _428  and  _429
REMARK  180  A    between atoms: _428  and  _431
REMARK  181  A    between atoms: _431  and  _432
REMARK  182  A    between atoms: _435  and  _437
REMARK  183  A    between atoms: _437  and  _438
REMARK  184  A    between atoms: _437  and  _440
REMARK  185  A    between atoms: _440  and  _441
REMARK  186  A    between atoms: _451  and  _453
REMARK  187  A    between atoms: _453  and  _454
REMARK  188  A    between atoms: _453  and  _456
REMARK  189  A    between atoms: _456  and  _457
REMARK  190  A    between atoms: _457  and  _458
REMARK  191  A    between atoms: _458  and  _459
REMARK  192  A    between atoms: _459  and  _460
REMARK  193  A    between atoms: _464  and  _466
REMARK  194  A    between atoms: _466  and  _467
REMARK  195  A    between atoms: _466  and  _469
REMARK  196  A    between atoms: _469  and  _470
REMARK  197  A    between atoms: _473  and  _474
REMARK  198  A    between atoms: _479  and  _481
REMARK  199  A    between atoms: _481  and  _482
REMARK  200  A    between atoms: _481  and  _484
REMARK  201  A    between atoms: _484  and  _485
REMARK  202  A    between atoms: _485  and  _486
REMARK  203  A    between atoms: _486  and  _487
REMARK  204  A    between atoms: _496  and  _498
REMARK  205  A    between atoms: _498  and  _499
REMARK  206  A    between atoms: _498  and  _501
REMARK  207  A    between atoms: _501  and  _502
REMARK  208  A    between atoms: _505  and  _507
REMARK  209  A    between atoms: _507  and  _508
REMARK  210  A    between atoms: _507  and  _510
REMARK  211  A    between atoms: _510  and  _511
REMARK  212  A    between atoms: _513  and  _515
REMARK  213  A    between atoms: _515  and  _516
REMARK  214  A    between atoms: _515  and  _518
REMARK  215  A    between atoms: _518  and  _519
REMARK  216  A    between atoms: _519  and  _520
REMARK  217  A    between atoms: _520  and  _521
REMARK  218  A    between atoms: _521  and  _522
REMARK  219  A    between atoms: _526  and  _528
REMARK  220  A    between atoms: _528  and  _529
REMARK  221  A    between atoms: _528  and  _531
REMARK  222  A    between atoms: _531  and  _532
REMARK  223  A    between atoms: _535  and  _537
REMARK  224  A    between atoms: _537  and  _538
REMARK  225  A    between atoms: _540  and  _542
REMARK  226  A    between atoms: _542  and  _543
REMARK  227  A    between atoms: _542  and  _545
REMARK  228  A    between atoms: _545  and  _546
REMARK  229  A    between atoms: _548  and  _550
REMARK  230  A    between atoms: _550  and  _551
REMARK  231  A    between atoms: _553  and  _555
REMARK  232  A    between atoms: _555  and  _556
REMARK  233  A    between atoms: _555  and  _558
REMARK  234  A    between atoms: _558  and  _559
REMARK  235  A    between atoms: _564  and  _566
REMARK  236  A    between atoms: _566  and  _567
REMARK  237  A    between atoms: _566  and  _569
REMARK  238  A    between atoms: _569  and  _570
REMARK  239  A    between atoms: _573  and  _575
REMARK  240  A    between atoms: _575  and  _576
REMARK  241  A    between atoms: _575  and  _578
REMARK  242  A    between atoms: _578  and  _579
REMARK  243  A    between atoms: _585  and  _587
REMARK  244  A    between atoms: _587  and  _588
REMARK  245  A    between atoms: _587  and  _590
REMARK  246  A    between atoms: _590  and  _591
REMARK  247  A    between atoms: _591  and  _592
REMARK  248  A    between atoms: _595  and  _597
REMARK  249  A    between atoms: _597  and  _598
REMARK  250  A    between atoms: _597  and  _600
REMARK  251  A    between atoms: _600  and  _601
REMARK  252  A    between atoms: _601  and  _602
REMARK  253  A    between atoms: _602  and  _603
REMARK  254  A    between atoms: _612  and  _614
REMARK  255  A    between atoms: _614  and  _615
REMARK  256  A    between atoms: _614  and  _617
REMARK  257  A    between atoms: _617  and  _618
REMARK  258  A    between atoms: _618  and  _619
REMARK  259  A    between atoms: _619  and  _620
REMARK  260  A    between atoms: _629  and  _631
REMARK  261  A    between atoms: _631  and  _632
REMARK  262  A    between atoms: _631  and  _634
REMARK  263  A    between atoms: _634  and  _635
REMARK  264  A    between atoms: _640  and  _641
REMARK  265  A    between atoms: _643  and  _645
REMARK  266  A    between atoms: _645  and  _646
REMARK  267  A    between atoms: _645  and  _648
REMARK  268  A    between atoms: _648  and  _649
REMARK  269  A    between atoms: _652  and  _654
REMARK  270  A    between atoms: _654  and  _655
REMARK  271  A    between atoms: _654  and  _657
REMARK  272  A    between atoms: _657  and  _658
REMARK  273  A    between atoms: _658  and  _659
REMARK  274  A    between atoms: _659  and  _660
REMARK  275  A    between atoms: _660  and  _661
REMARK  276  A    between atoms: _665  and  _667
REMARK  277  A    between atoms: _667  and  _668
REMARK  278  A    between atoms: _667  and  _670
REMARK  279  A    between atoms: _670  and  _671
REMARK  280  A    between atoms: _676  and  _678
REMARK  281  A    between atoms: _678  and  _679
REMARK  282  A    between atoms: _678  and  _681
REMARK  283  A    between atoms: _681  and  _682
REMARK  284  A    between atoms: _692  and  _694
REMARK  285  A    between atoms: _694  and  _695
REMARK  286  A    between atoms: _694  and  _697
REMARK  287  A    between atoms: _697  and  _698
REMARK  288  A    between atoms: _698  and  _699
REMARK  289  A    between atoms: _702  and  _704
REMARK  290  A    between atoms: _704  and  _705
REMARK  291  A    between atoms: _704  and  _707
REMARK  292  A    between atoms: _707  and  _708
REMARK  293  A    between atoms: _711  and  _713
REMARK  294  A    between atoms: _713  and  _714
REMARK  295  A    between atoms: _713  and  _716
REMARK  296  A    between atoms: _716  and  _717
REMARK  297  A    between atoms: _722  and  _724
REMARK  298  A    between atoms: _724  and  _725
REMARK  299  A    between atoms: _724  and  _727
REMARK  300  A    between atoms: _727  and  _728
REMARK  301  A    between atoms: _734  and  _736
REMARK  302  A    between atoms: _736  and  _737
REMARK  303  A    between atoms: _736  and  _739
REMARK  304  A    between atoms: _739  and  _740
REMARK  305  A    between atoms: _742  and  _744
REMARK  306  A    between atoms: _744  and  _745
REMARK  307  A    between atoms: _747  and  _749
REMARK  308  A    between atoms: _749  and  _750
REMARK  309  A    between atoms: _749  and  _752
REMARK  310  A    between atoms: _752  and  _753
REMARK  311  A    between atoms: _758  and  _759
REMARK  312  A    between atoms: _761  and  _763
REMARK  313  A    between atoms: _763  and  _764
REMARK  314  A    between atoms: _763  and  _766
REMARK  315  A    between atoms: _766  and  _767
REMARK  316  A    between atoms: _772  and  _773
REMARK  317  A    between atoms: _775  and  _777
REMARK  318  A    between atoms: _777  and  _778
REMARK  319  A    between atoms: _777  and  _780
REMARK  320  A    between atoms: _780  and  _781
REMARK  321  A    between atoms: _785  and  ZN_876
REMARK  322  A    between atoms: _786  and  _788
REMARK  323  A    between atoms: _788  and  _789
REMARK  324  A    between atoms: _788  and  _791
REMARK  325  A    between atoms: _791  and  _792
REMARK  326  A    between atoms: _792  and  _793
REMARK  327  A    between atoms: _796  and  _798
REMARK  328  A    between atoms: _798  and  _799
REMARK  329  A    between atoms: _798  and  _801
REMARK  330  A    between atoms: _801  and  _802
REMARK  331  A    between atoms: _802  and  _803
REMARK  332  A    between atoms: _803  and  _804
REMARK  333  A    between atoms: _813  and  _815
REMARK  334  A    between atoms: _815  and  _816
REMARK  335  A    between atoms: _815  and  _818
REMARK  336  A    between atoms: _818  and  _819
REMARK  337  A    between atoms: _824  and  _825
REMARK  338  A    between atoms: _827  and  _829
REMARK  339  A    between atoms: _829  and  _830
REMARK  340  A    between atoms: _829  and  _832
REMARK  341  A    between atoms: _832  and  _833
REMARK  342  A    between atoms: _838  and  _840
REMARK  343  A    between atoms: _840  and  _841
REMARK  344  A    between atoms: _840  and  _843
REMARK  345  A    between atoms: _843  and  _844
REMARK  346  A    between atoms: _844  and  _845
REMARK  347  A    between atoms: _845  and  _846
REMARK  348  A    between atoms: _846  and  _847
REMARK  349  A    between atoms: _851  and  _853
REMARK  350  A    between atoms: _853  and  _854
REMARK  351  A    between atoms: _853  and  _856
REMARK  352  A    between atoms: _856  and  _857
REMARK  353  A    between atoms: _862  and  _863
REMARK  354  A    between atoms: _865  and  _867
REMARK  355  A    between atoms: _867  and  _868
REMARK  356  A    between atoms: _871  and  _873
REMARK  357  A    between atoms: _873  and  _874
REMARK                            x       y       z     vdW  Elec       q    Type
REMARK                         _______ _______ _______ _____ _____    ______ ____
ROOT
ATOM      1  O   HOH     1      19.241  36.131  43.110  0.00  0.00    +0.000 OA
ENDROOT
TORSDOF 0
REMARK  Name = ../refined-set-2016/2xei/2xei_pocket.pdb
REMARK  357 active torsions:
REMARK  status: ('A' for Active; 'I' for Inactive)
REMARK    1  A    between atoms: _1  and  _3
REMARK    2  A    between atoms: _3  and  _4
REMARK    3  A    between atoms: _7  and  _9
REMARK    4  A    between atoms: _9  and  _10
REMARK    5  A    between atoms: _9  and  _12
REMARK    6  A    between atoms: _12  and  _13
REMARK    7  A    between atoms: _19  and  _21
REMARK    8  A    between atoms: _21  and  _22
REMARK    9  A    between atoms: _24  and  _26
REMARK   10  A    between atoms: _26  and  _27
REMARK   11  A    between atoms: _26  and  _29
REMARK   12  A    between atoms: _29  and  _30
REMARK   13  A    between atoms: _30  and  _31
REMARK   14  A    between atoms: _31  and  _32
REMARK   15  A    between atoms: _32  and  _33
REMARK   16  A    between atoms: _37  and  _39
REMARK   17  A    between atoms: _39  and  _40
REMARK   18  A    between atoms: _39  and  _42
REMARK   19  A    between atoms: _45  and  _47
REMARK   20  A    between atoms: _47  and  _48
REMARK   21  A    between atoms: _47  and  _50
REMARK   22  A    between atoms: _50  and  _51
REMARK   23  A    between atoms: _57  and  _59
REMARK   24  A    between atoms: _59  and  _60
REMARK   25  A    between atoms: _59  and  _62
REMARK   26  A    between atoms: _62  and  _63
REMARK   27  A    between atoms: _63  and  _64
REMARK   28  A    between atoms: _64  and  _65
REMARK   29  A    between atoms: _74  and  _76
REMARK   30  A    between atoms: _76  and  _77
REMARK   31  A    between atoms: _79  and  _81
REMARK   32  A    between atoms: _81  and  _82
REMARK   33  A    between atoms: _81  and  _84
REMARK   34  A    between atoms: _84  and  _85
REMARK   35  A    between atoms: _90  and  _91
REMARK   36  A    between atoms: _93  and  _95
REMARK   37  A    between atoms: _95  and  _96
REMARK   38  A    between atoms: _95  and  _98
REMARK   39  A    between atoms: _98  and  _99
REMARK   40  A    between atoms: _99  and  _100
REMARK   41  A    between atoms: _105  and  _107
REMARK   42  A    between atoms: _107  and  _108
REMARK   43  A    between atoms: _107  and  _110
REMARK   44  A    between atoms: _110  and  _111
REMARK   45  A    between atoms: _111  and  _112
REMARK   46  A    between atoms: _112  and  _113
REMARK   47  A    between atoms: _122  and  _124
REMARK   48  A    between atoms: _124  and  _125
REMARK   49  A    between atoms: _127  and  _129
REMARK   50  A    between atoms: _129  and  _130
REMARK   51  A    between atoms: _129  and  _132
REMARK   52  A    between atoms: _132  and  _133
REMARK   53  A    between atoms: _138  and  _140
REMARK   54  A    between atoms: _140  and  _141
REMARK   55  A    between atoms: _140  and  _143
REMARK   56  A    between atoms: _143  and  _144
REMARK   57  A    between atoms: _147  and  _149
REMARK   58  A    between atoms: _149  and  _150
REMARK   59  A    between atoms: _149  and  _152
REMARK   60  A    between atoms: _152  and  _153
REMARK   61  A    between atoms: _156  and  _158
REMARK   62  A    between atoms: _158  and  _159
REMARK   63  A    between atoms: _158  and  _161
REMARK   64  A    between atoms: _161  and  _162
REMARK   65  A    between atoms: _167  and  _169
REMARK   66  A    between atoms: _169  and  _170
REMARK   67  A    between atoms: _169  and  _172
REMARK   68  A    between atoms: _172  and  _173
REMARK   69  A    between atoms: _176  and  _178
REMARK   70  A    between atoms: _178  and  _179
REMARK   71  A    between atoms: _178  and  _181
REMARK   72  A    between atoms: _181  and  _182
REMARK   73  A    between atoms: _187  and  _189
REMARK   74  A    between atoms: _189  and  _190
REMARK   75  A    between atoms: _192  and  _194
REMARK   76  A    between atoms: _194  and  _195
REMARK   77  A    between atoms: _194  and  _197
REMARK   78  A    between atoms: _197  and  _198
REMARK   79  A    between atoms: _202  and  ZN_877
REMARK   80  A    between atoms: _203  and  _205
REMARK   81  A    between atoms: _205  and  _206
REMARK   82  A    between atoms: _205  and  _208
REMARK   83  A    between atoms: _208  and  _209
REMARK   84  A    between atoms: _212  and  _214
REMARK   85  A    between atoms: _214  and  _215
REMARK   86  A    between atoms: _214  and  _217
REMARK   87  A    between atoms: _217  and  _218
REMARK   88  A    between atoms: _228  and  _230
REMARK   89  A    between atoms: _230  and  _231
REMARK   90  A    between atoms: _230  and  _233
REMARK   91  A    between atoms: _233  and  _234
REMARK   92  A    between atoms: _237  and  _239
REMARK   93  A    between atoms: _239  and  _240
REMARK   94  A    between atoms: _239  and  _242
REMARK   95  A    between atoms: _242  and  _243
REMARK   96  A    between atoms: _243  and  _244
REMARK   97  A    between atoms: _243  and  _245
REMARK   98  A    between atoms: _244  and  ZN_877
REMARK   99  A    between atoms: _245  and  ZN_876
REMARK  100  A    between atoms: _247  and  _248
REMARK  101  A    between atoms: _253  and  _255
REMARK  102  A    between atoms: _255  and  _256
REMARK  103  A    between atoms: _259  and  _261
REMARK  104  A    between atoms: _261  and  _262
REMARK  105  A    between atoms: _261  and  _264
REMARK  106  A    between atoms: _264  and  _265
REMARK  107  A    between atoms: _265  and  _266
REMARK  108  A    between atoms: _269  and  _271
REMARK  109  A    between atoms: _271  and  _272
REMARK  110  A    between atoms: _271  and  _274
REMARK  111  A    between atoms: _274  and  _275
REMARK  112  A    between atoms: _275  and  _276
REMARK  113  A    between atoms: _276  and  _278
REMARK  114  A    between atoms: _278  and  ZN_876
REMARK  115  A    between atoms: _279  and  _281
REMARK  116  A    between atoms: _281  and  _282
REMARK  117  A    between atoms: _281  and  _284
REMARK  118  A    between atoms: _284  and  _285
REMARK  119  A    between atoms: _291  and  _293
REMARK  120  A    between atoms: _293  and  _294
REMARK  121  A    between atoms: _296  and  _298
REMARK  122  A    between atoms: _298  and  _299
REMARK  123  A    between atoms: _298  and  _301
REMARK  124  A    between atoms: _301  and  _302
REMARK  125  A    between atoms: _305  and  _307
REMARK  126  A    between atoms: _307  and  _308
REMARK  127  A    between atoms: _307  and  _310
REMARK  128  A    between atoms: _310  and  _311
REMARK  129  A    between atoms: _314  and  _316
REMARK  130  A    between atoms: _316  and  _317
REMARK  131  A    between atoms: _316  and  _319
REMARK  132  A    between atoms: _319  and  _320
REMARK  133  A    between atoms: _325  and  _327
REMARK  134  A    between atoms: _327  and  _328
REMARK  135  A    between atoms: _327  and  _330
REMARK  136  A    between atoms: _330  and  _331
REMARK  137  A    between atoms: _331  and  _333
REMARK  138  A    between atoms: _333  and  ZN_877
REMARK  139  A    between atoms: _334  and  _336
REMARK  140  A    between atoms: _336  and  _337
REMARK  141  A    between atoms: _336  and  _339
REMARK  142  A    between atoms: _339  and  _340
REMARK  143  A    between atoms: _342  and  _344
REMARK  144  A    between atoms: _344  and  _345
REMARK  145  A    between atoms: _344  and  _347
REMARK  146  A    between atoms: _347  and  _348
REMARK  147  A    between atoms: _350  and  _352
REMARK  148  A    between atoms: _352  and  _353
REMARK  149  A    between atoms: _352  and  _355
REMARK  150  A    between atoms: _355  and  _356
REMARK  151  A    between atoms: _359  and  _361
REMARK  152  A    between atoms: _361  and  _362
REMARK  153  A    between atoms: _361  and  _364
REMARK  154  A    between atoms: _364  and  _365
REMARK  155  A    between atoms: _365  and  _366
REMARK  156  A    between atoms: _369  and  _371
REMARK  157  A    between atoms: _371  and  _372
REMARK  158  A    between atoms: _371  and  _374
REMARK  159  A    between atoms: _374  and  _375
REMARK  160  A    between atoms: _380  and  _381
REMARK  161  A    between atoms: _383  and  _385
REMARK  162  A    between atoms: _385  and  _386
REMARK  163  A    between atoms: _385  and  _388
REMARK  164  A    between atoms: _388  and  _389
REMARK  165  A    between atoms: _392  and  _394
REMARK  166  A    between atoms: _394  and  _395
REMARK  167  A    between atoms: _394  and  _397
REMARK  168  A    between atoms: _397  and  _398
REMARK  169  A    between atoms: _401  and  _403
REMARK  170  A    between atoms: _403  and  _404
REMARK  171  A    between atoms: _403  and  _406
REMARK  172  A    between atoms: _406  and  _407
REMARK  173  A    between atoms: _407  and  _408
REMARK  174  A    between atoms: _408  and  _409
REMARK  175  A    between atoms: _418  and  _420
REMARK  176  A    between atoms: _420  and  _421
REMARK  177  A    between atoms: _420  and  _423
REMARK  178  A    between atoms: _426  and  _428
REMARK  179  A    between atoms: _428  and  _429
REMARK  180  A    between atoms: _428  and  _431
REMARK  181  A    between atoms: _431  and  _432
REMARK  182  A    between atoms: _435  and  _437
REMARK  183  A    between atoms: _437  and  _438
REMARK  184  A    between atoms: _437  and  _440
REMARK  185  A    between atoms: _440  and  _441
REMARK  186  A    between atoms: _451  and  _453
REMARK  187  A    between atoms: _453  and  _454
REMARK  188  A    between atoms: _453  and  _456
REMARK  189  A    between atoms: _456  and  _457
REMARK  190  A    between atoms: _457  and  _458
REMARK  191  A    between atoms: _458  and  _459
REMARK  192  A    between atoms: _459  and  _460
REMARK  193  A    between atoms: _464  and  _466
REMARK  194  A    between atoms: _466  and  _467
REMARK  195  A    between atoms: _466  and  _469
REMARK  196  A    between atoms: _469  and  _470
REMARK  197  A    between atoms: _473  and  _474
REMARK  198  A    between atoms: _479  and  _481
REMARK  199  A    between atoms: _481  and  _482
REMARK  200  A    between atoms: _481  and  _484
REMARK  201  A    between atoms: _484  and  _485
REMARK  202  A    between atoms: _485  and  _486
REMARK  203  A    between atoms: _486  and  _487
REMARK  204  A    between atoms: _496  and  _498
REMARK  205  A    between atoms: _498  and  _499
REMARK  206  A    between atoms: _498  and  _501
REMARK  207  A    between atoms: _501  and  _502
REMARK  208  A    between atoms: _505  and  _507
REMARK  209  A    between atoms: _507  and  _508
REMARK  210  A    between atoms: _507  and  _510
REMARK  211  A    between atoms: _510  and  _511
REMARK  212  A    between atoms: _513  and  _515
REMARK  213  A    between atoms: _515  and  _516
REMARK  214  A    between atoms: _515  and  _518
REMARK  215  A    between atoms: _518  and  _519
REMARK  216  A    between atoms: _519  and  _520
REMARK  217  A    between atoms: _520  and  _521
REMARK  218  A    between atoms: _521  and  _522
REMARK  219  A    between atoms: _526  and  _528
REMARK  220  A    between atoms: _528  and  _529
REMARK  221  A    between atoms: _528  and  _531
REMARK  222  A    between atoms: _531  and  _532
REMARK  223  A    between atoms: _535  and  _537
REMARK  224  A    between atoms: _537  and  _538
REMARK  225  A    between atoms: _540  and  _542
REMARK  226  A    between atoms: _542  and  _543
REMARK  227  A    between atoms: _542  and  _545
REMARK  228  A    between atoms: _545  and  _546
REMARK  229  A    between atoms: _548  and  _550
REMARK  230  A    between atoms: _550  and  _551
REMARK  231  A    between atoms: _553  and  _555
REMARK  232  A    between atoms: _555  and  _556
REMARK  233  A    between atoms: _555  and  _558
REMARK  234  A    between atoms: _558  and  _559
REMARK  235  A    between atoms: _564  and  _566
REMARK  236  A    between atoms: _566  and  _567
REMARK  237  A    between atoms: _566  and  _569
REMARK  238  A    between atoms: _569  and  _570
REMARK  239  A    between atoms: _573  and  _575
REMARK  240  A    between atoms: _575  and  _576
REMARK  241  A    between atoms: _575  and  _578
REMARK  242  A    between atoms: _578  and  _579
REMARK  243  A    between atoms: _585  and  _587
REMARK  244  A    between atoms: _587  and  _588
REMARK  245  A    between atoms: _587  and  _590
REMARK  246  A    between atoms: _590  and  _591
REMARK  247  A    between atoms: _591  and  _592
REMARK  248  A    between atoms: _595  and  _597
REMARK  249  A    between atoms: _597  and  _598
REMARK  250  A    between atoms: _597  and  _600
REMARK  251  A    between atoms: _600  and  _601
REMARK  252  A    between atoms: _601  and  _602
REMARK  253  A    between atoms: _602  and  _603
REMARK  254  A    between atoms: _612  and  _614
REMARK  255  A    between atoms: _614  and  _615
REMARK  256  A    between atoms: _614  and  _617
REMARK  257  A    between atoms: _617  and  _618
REMARK  258  A    between atoms: _618  and  _619
REMARK  259  A    between atoms: _619  and  _620
REMARK  260  A    between atoms: _629  and  _631
REMARK  261  A    between atoms: _631  and  _632
REMARK  262  A    between atoms: _631  and  _634
REMARK  263  A    between atoms: _634  and  _635
REMARK  264  A    between atoms: _640  and  _641
REMARK  265  A    between atoms: _643  and  _645
REMARK  266  A    between atoms: _645  and  _646
REMARK  267  A    between atoms: _645  and  _648
REMARK  268  A    between atoms: _648  and  _649
REMARK  269  A    between atoms: _652  and  _654
REMARK  270  A    between atoms: _654  and  _655
REMARK  271  A    between atoms: _654  and  _657
REMARK  272  A    between atoms: _657  and  _658
REMARK  273  A    between atoms: _658  and  _659
REMARK  274  A    between atoms: _659  and  _660
REMARK  275  A    between atoms: _660  and  _661
REMARK  276  A    between atoms: _665  and  _667
REMARK  277  A    between atoms: _667  and  _668
REMARK  278  A    between atoms: _667  and  _670
REMARK  279  A    between atoms: _670  and  _671
REMARK  280  A    between atoms: _676  and  _678
REMARK  281  A    between atoms: _678  and  _679
REMARK  282  A    between atoms: _678  and  _681
REMARK  283  A    between atoms: _681  and  _682
REMARK  284  A    between atoms: _692  and  _694
REMARK  285  A    between atoms: _694  and  _695
REMARK  286  A    between atoms: _694  and  _697
REMARK  287  A    between atoms: _697  and  _698
REMARK  288  A    between atoms: _698  and  _699
REMARK  289  A    between atoms: _702  and  _704
REMARK  290  A    between atoms: _704  and  _705
REMARK  291  A    between atoms: _704  and  _707
REMARK  292  A    between atoms: _707  and  _708
REMARK  293  A    between atoms: _711  and  _713
REMARK  294  A    between atoms: _713  and  _714
REMARK  295  A    between atoms: _713  and  _716
REMARK  296  A    between atoms: _716  and  _717
REMARK  297  A    between atoms: _722  and  _724
REMARK  298  A    between atoms: _724  and  _725
REMARK  299  A    between atoms: _724  and  _727
REMARK  300  A    between atoms: _727  and  _728
REMARK  301  A    between atoms: _734  and  _736
REMARK  302  A    between atoms: _736  and  _737
REMARK  303  A    between atoms: _736  and  _739
REMARK  304  A    between atoms: _739  and  _740
REMARK  305  A    between atoms: _742  and  _744
REMARK  306  A    between atoms: _744  and  _745
REMARK  307  A    between atoms: _747  and  _749
REMARK  308  A    between atoms: _749  and  _750
REMARK  309  A    between atoms: _749  and  _752
REMARK  310  A    between atoms: _752  and  _753
REMARK  311  A    between atoms: _758  and  _759
REMARK  312  A    between atoms: _761  and  _763
REMARK  313  A    between atoms: _763  and  _764
REMARK  314  A    between atoms: _763  and  _766
REMARK  315  A    between atoms: _766  and  _767
REMARK  316  A    between atoms: _772  and  _773
REMARK  317  A    between atoms: _775  and  _777
REMARK  318  A    between atoms: _777  and  _778
REMARK  319  A    between atoms: _777  and  _780
REMARK  320  A    between atoms: _780  and  _781
REMARK  321  A    between atoms: _785  and  ZN_876
REMARK  322  A    between atoms: _786  and  _788
REMARK  323  A    between atoms: _788  and  _789
REMARK  324  A    between atoms: _788  and  _791
REMARK  325  A    between atoms: _791  and  _792
REMARK  326  A    between atoms: _792  and  _793
REMARK  327  A    between atoms: _796  and  _798
REMARK  328  A    between atoms: _798  and  _799
REMARK  329  A    between atoms: _798  and  _801
REMARK  330  A    between atoms: _801  and  _802
REMARK  331  A    between atoms: _802  and  _803
REMARK  332  A    between atoms: _803  and  _804
REMARK  333  A    between atoms: _813  and  _815
REMARK  334  A    between atoms: _815  and  _816
REMARK  335  A    between atoms: _815  and  _818
REMARK  336  A    between atoms: _818  and  _819
REMARK  337  A    between atoms: _824  and  _825
REMARK  338  A    between atoms: _827  and  _829
REMARK  339  A    between atoms: _829  and  _830
REMARK  340  A    between atoms: _829  and  _832
REMARK  341  A    between atoms: _832  and  _833
REMARK  342  A    between atoms: _838  and  _840
REMARK  343  A    between atoms: _840  and  _841
REMARK  344  A    between atoms: _840  and  _843
REMARK  345  A    between atoms: _843  and  _844
REMARK  346  A    between atoms: _844  and  _845
REMARK  347  A    between atoms: _845  and  _846
REMARK  348  A    between atoms: _846  and  _847
REMARK  349  A    between atoms: _851  and  _853
REMARK  350  A    between atoms: _853  and  _854
REMARK  351  A    between atoms: _853  and  _856
REMARK  352  A    between atoms: _856  and  _857
REMARK  353  A    between atoms: _862  and  _863
REMARK  354  A    between atoms: _865  and  _867
REMARK  355  A    between atoms: _867  and  _868
REMARK  356  A    between atoms: _871  and  _873
REMARK  357  A    between atoms: _873  and  _874
REMARK                            x       y       z     vdW  Elec       q    Type
REMARK                         _______ _______ _______ _____ _____    ______ ____
ROOT
ATOM      1  O   HOH     1      13.978  54.753  37.388  0.00  0.00    +0.000 OA
ENDROOT
TORSDOF 0
REMARK  Name = ../refined-set-2016/2xei/2xei_pocket.pdb
REMARK  357 active torsions:
REMARK  status: ('A' for Active; 'I' for Inactive)
REMARK    1  A    between atoms: _1  and  _3
REMARK    2  A    between atoms: _3  and  _4
REMARK    3  A    between atoms: _7  and  _9
REMARK    4  A    between atoms: _9  and  _10
REMARK    5  A    between atoms: _9  and  _12
REMARK    6  A    between atoms: _12  and  _13
REMARK    7  A    between atoms: _19  and  _21
REMARK    8  A    between atoms: _21  and  _22
REMARK    9  A    between atoms: _24  and  _26
REMARK   10  A    between atoms: _26  and  _27
REMARK   11  A    between atoms: _26  and  _29
REMARK   12  A    between atoms: _29  and  _30
REMARK   13  A    between atoms: _30  and  _31
REMARK   14  A    between atoms: _31  and  _32
REMARK   15  A    between atoms: _32  and  _33
REMARK   16  A    between atoms: _37  and  _39
REMARK   17  A    between atoms: _39  and  _40
REMARK   18  A    between atoms: _39  and  _42
REMARK   19  A    between atoms: _45  and  _47
REMARK   20  A    between atoms: _47  and  _48
REMARK   21  A    between atoms: _47  and  _50
REMARK   22  A    between atoms: _50  and  _51
REMARK   23  A    between atoms: _57  and  _59
REMARK   24  A    between atoms: _59  and  _60
REMARK   25  A    between atoms: _59  and  _62
REMARK   26  A    between atoms: _62  and  _63
REMARK   27  A    between atoms: _63  and  _64
REMARK   28  A    between atoms: _64  and  _65
REMARK   29  A    between atoms: _74  and  _76
REMARK   30  A    between atoms: _76  and  _77
REMARK   31  A    between atoms: _79  and  _81
REMARK   32  A    between atoms: _81  and  _82
REMARK   33  A    between atoms: _81  and  _84
REMARK   34  A    between atoms: _84  and  _85
REMARK   35  A    between atoms: _90  and  _91
REMARK   36  A    between atoms: _93  and  _95
REMARK   37  A    between atoms: _95  and  _96
REMARK   38  A    between atoms: _95  and  _98
REMARK   39  A    between atoms: _98  and  _99
REMARK   40  A    between atoms: _99  and  _100
REMARK   41  A    between atoms: _105  and  _107
REMARK   42  A    between atoms: _107  and  _108
REMARK   43  A    between atoms: _107  and  _110
REMARK   44  A    between atoms: _110  and  _111
REMARK   45  A    between atoms: _111  and  _112
REMARK   46  A    between atoms: _112  and  _113
REMARK   47  A    between atoms: _122  and  _124
REMARK   48  A    between atoms: _124  and  _125
REMARK   49  A    between atoms: _127  and  _129
REMARK   50  A    between atoms: _129  and  _130
REMARK   51  A    between atoms: _129  and  _132
REMARK   52  A    between atoms: _132  and  _133
REMARK   53  A    between atoms: _138  and  _140
REMARK   54  A    between atoms: _140  and  _141
REMARK   55  A    between atoms: _140  and  _143
REMARK   56  A    between atoms: _143  and  _144
REMARK   57  A    between atoms: _147  and  _149
REMARK   58  A    between atoms: _149  and  _150
REMARK   59  A    between atoms: _149  and  _152
REMARK   60  A    between atoms: _152  and  _153
REMARK   61  A    between atoms: _156  and  _158
REMARK   62  A    between atoms: _158  and  _159
REMARK   63  A    between atoms: _158  and  _161
REMARK   64  A    between atoms: _161  and  _162
REMARK   65  A    between atoms: _167  and  _169
REMARK   66  A    between atoms: _169  and  _170
REMARK   67  A    between atoms: _169  and  _172
REMARK   68  A    between atoms: _172  and  _173
REMARK   69  A    between atoms: _176  and  _178
REMARK   70  A    between atoms: _178  and  _179
REMARK   71  A    between atoms: _178  and  _181
REMARK   72  A    between atoms: _181  and  _182
REMARK   73  A    between atoms: _187  and  _189
REMARK   74  A    between atoms: _189  and  _190
REMARK   75  A    between atoms: _192  and  _194
REMARK   76  A    between atoms: _194  and  _195
REMARK   77  A    between atoms: _194  and  _197
REMARK   78  A    between atoms: _197  and  _198
REMARK   79  A    between atoms: _202  and  ZN_877
REMARK   80  A    between atoms: _203  and  _205
REMARK   81  A    between atoms: _205  and  _206
REMARK   82  A    between atoms: _205  and  _208
REMARK   83  A    between atoms: _208  and  _209
REMARK   84  A    between atoms: _212  and  _214
REMARK   85  A    between atoms: _214  and  _215
REMARK   86  A    between atoms: _214  and  _217
REMARK   87  A    between atoms: _217  and  _218
REMARK   88  A    between atoms: _228  and  _230
REMARK   89  A    between atoms: _230  and  _231
REMARK   90  A    between atoms: _230  and  _233
REMARK   91  A    between atoms: _233  and  _234
REMARK   92  A    between atoms: _237  and  _239
REMARK   93  A    between atoms: _239  and  _240
REMARK   94  A    between atoms: _239  and  _242
REMARK   95  A    between atoms: _242  and  _243
REMARK   96  A    between atoms: _243  and  _244
REMARK   97  A    between atoms: _243  and  _245
REMARK   98  A    between atoms: _244  and  ZN_877
REMARK   99  A    between atoms: _245  and  ZN_876
REMARK  100  A    between atoms: _247  and  _248
REMARK  101  A    between atoms: _253  and  _255
REMARK  102  A    between atoms: _255  and  _256
REMARK  103  A    between atoms: _259  and  _261
REMARK  104  A    between atoms: _261  and  _262
REMARK  105  A    between atoms: _261  and  _264
REMARK  106  A    between atoms: _264  and  _265
REMARK  107  A    between atoms: _265  and  _266
REMARK  108  A    between atoms: _269  and  _271
REMARK  109  A    between atoms: _271  and  _272
REMARK  110  A    between atoms: _271  and  _274
REMARK  111  A    between atoms: _274  and  _275
REMARK  112  A    between atoms: _275  and  _276
REMARK  113  A    between atoms: _276  and  _278
REMARK  114  A    between atoms: _278  and  ZN_876
REMARK  115  A    between atoms: _279  and  _281
REMARK  116  A    between atoms: _281  and  _282
REMARK  117  A    between atoms: _281  and  _284
REMARK  118  A    between atoms: _284  and  _285
REMARK  119  A    between atoms: _291  and  _293
REMARK  120  A    between atoms: _293  and  _294
REMARK  121  A    between atoms: _296  and  _298
REMARK  122  A    between atoms: _298  and  _299
REMARK  123  A    between atoms: _298  and  _301
REMARK  124  A    between atoms: _301  and  _302
REMARK  125  A    between atoms: _305  and  _307
REMARK  126  A    between atoms: _307  and  _308
REMARK  127  A    between atoms: _307  and  _310
REMARK  128  A    between atoms: _310  and  _311
REMARK  129  A    between atoms: _314  and  _316
REMARK  130  A    between atoms: _316  and  _317
REMARK  131  A    between atoms: _316  and  _319
REMARK  132  A    between atoms: _319  and  _320
REMARK  133  A    between atoms: _325  and  _327
REMARK  134  A    between atoms: _327  and  _328
REMARK  135  A    between atoms: _327  and  _330
REMARK  136  A    between atoms: _330  and  _331
REMARK  137  A    between atoms: _331  and  _333
REMARK  138  A    between atoms: _333  and  ZN_877
REMARK  139  A    between atoms: _334  and  _336
REMARK  140  A    between atoms: _336  and  _337
REMARK  141  A    between atoms: _336  and  _339
REMARK  142  A    between atoms: _339  and  _340
REMARK  143  A    between atoms: _342  and  _344
REMARK  144  A    between atoms: _344  and  _345
REMARK  145  A    between atoms: _344  and  _347
REMARK  146  A    between atoms: _347  and  _348
REMARK  147  A    between atoms: _350  and  _352
REMARK  148  A    between atoms: _352  and  _353
REMARK  149  A    between atoms: _352  and  _355
REMARK  150  A    between atoms: _355  and  _356
REMARK  151  A    between atoms: _359  and  _361
REMARK  152  A    between atoms: _361  and  _362
REMARK  153  A    between atoms: _361  and  _364
REMARK  154  A    between atoms: _364  and  _365
REMARK  155  A    between atoms: _365  and  _366
REMARK  156  A    between atoms: _369  and  _371
REMARK  157  A    between atoms: _371  and  _372
REMARK  158  A    between atoms: _371  and  _374
REMARK  159  A    between atoms: _374  and  _375
REMARK  160  A    between atoms: _380  and  _381
REMARK  161  A    between atoms: _383  and  _385
REMARK  162  A    between atoms: _385  and  _386
REMARK  163  A    between atoms: _385  and  _388
REMARK  164  A    between atoms: _388  and  _389
REMARK  165  A    between atoms: _392  and  _394
REMARK  166  A    between atoms: _394  and  _395
REMARK  167  A    between atoms: _394  and  _397
REMARK  168  A    between atoms: _397  and  _398
REMARK  169  A    between atoms: _401  and  _403
REMARK  170  A    between atoms: _403  and  _404
REMARK  171  A    between atoms: _403  and  _406
REMARK  172  A    between atoms: _406  and  _407
REMARK  173  A    between atoms: _407  and  _408
REMARK  174  A    between atoms: _408  and  _409
REMARK  175  A    between atoms: _418  and  _420
REMARK  176  A    between atoms: _420  and  _421
REMARK  177  A    between atoms: _420  and  _423
REMARK  178  A    between atoms: _426  and  _428
REMARK  179  A    between atoms: _428  and  _429
REMARK  180  A    between atoms: _428  and  _431
REMARK  181  A    between atoms: _431  and  _432
REMARK  182  A    between atoms: _435  and  _437
REMARK  183  A    between atoms: _437  and  _438
REMARK  184  A    between atoms: _437  and  _440
REMARK  185  A    between atoms: _440  and  _441
REMARK  186  A    between atoms: _451  and  _453
REMARK  187  A    between atoms: _453  and  _454
REMARK  188  A    between atoms: _453  and  _456
REMARK  189  A    between atoms: _456  and  _457
REMARK  190  A    between atoms: _457  and  _458
REMARK  191  A    between atoms: _458  and  _459
REMARK  192  A    between atoms: _459  and  _460
REMARK  193  A    between atoms: _464  and  _466
REMARK  194  A    between atoms: _466  and  _467
REMARK  195  A    between atoms: _466  and  _469
REMARK  196  A    between atoms: _469  and  _470
REMARK  197  A    between atoms: _473  and  _474
REMARK  198  A    between atoms: _479  and  _481
REMARK  199  A    between atoms: _481  and  _482
REMARK  200  A    between atoms: _481  and  _484
REMARK  201  A    between atoms: _484  and  _485
REMARK  202  A    between atoms: _485  and  _486
REMARK  203  A    between atoms: _486  and  _487
REMARK  204  A    between atoms: _496  and  _498
REMARK  205  A    between atoms: _498  and  _499
REMARK  206  A    between atoms: _498  and  _501
REMARK  207  A    between atoms: _501  and  _502
REMARK  208  A    between atoms: _505  and  _507
REMARK  209  A    between atoms: _507  and  _508
REMARK  210  A    between atoms: _507  and  _510
REMARK  211  A    between atoms: _510  and  _511
REMARK  212  A    between atoms: _513  and  _515
REMARK  213  A    between atoms: _515  and  _516
REMARK  214  A    between atoms: _515  and  _518
REMARK  215  A    between atoms: _518  and  _519
REMARK  216  A    between atoms: _519  and  _520
REMARK  217  A    between atoms: _520  and  _521
REMARK  218  A    between atoms: _521  and  _522
REMARK  219  A    between atoms: _526  and  _528
REMARK  220  A    between atoms: _528  and  _529
REMARK  221  A    between atoms: _528  and  _531
REMARK  222  A    between atoms: _531  and  _532
REMARK  223  A    between atoms: _535  and  _537
REMARK  224  A    between atoms: _537  and  _538
REMARK  225  A    between atoms: _540  and  _542
REMARK  226  A    between atoms: _542  and  _543
REMARK  227  A    between atoms: _542  and  _545
REMARK  228  A    between atoms: _545  and  _546
REMARK  229  A    between atoms: _548  and  _550
REMARK  230  A    between atoms: _550  and  _551
REMARK  231  A    between atoms: _553  and  _555
REMARK  232  A    between atoms: _555  and  _556
REMARK  233  A    between atoms: _555  and  _558
REMARK  234  A    between atoms: _558  and  _559
REMARK  235  A    between atoms: _564  and  _566
REMARK  236  A    between atoms: _566  and  _567
REMARK  237  A    between atoms: _566  and  _569
REMARK  238  A    between atoms: _569  and  _570
REMARK  239  A    between atoms: _573  and  _575
REMARK  240  A    between atoms: _575  and  _576
REMARK  241  A    between atoms: _575  and  _578
REMARK  242  A    between atoms: _578  and  _579
REMARK  243  A    between atoms: _585  and  _587
REMARK  244  A    between atoms: _587  and  _588
REMARK  245  A    between atoms: _587  and  _590
REMARK  246  A    between atoms: _590  and  _591
REMARK  247  A    between atoms: _591  and  _592
REMARK  248  A    between atoms: _595  and  _597
REMARK  249  A    between atoms: _597  and  _598
REMARK  250  A    between atoms: _597  and  _600
REMARK  251  A    between atoms: _600  and  _601
REMARK  252  A    between atoms: _601  and  _602
REMARK  253  A    between atoms: _602  and  _603
REMARK  254  A    between atoms: _612  and  _614
REMARK  255  A    between atoms: _614  and  _615
REMARK  256  A    between atoms: _614  and  _617
REMARK  257  A    between atoms: _617  and  _618
REMARK  258  A    between atoms: _618  and  _619
REMARK  259  A    between atoms: _619  and  _620
REMARK  260  A    between atoms: _629  and  _631
REMARK  261  A    between atoms: _631  and  _632
REMARK  262  A    between atoms: _631  and  _634
REMARK  263  A    between atoms: _634  and  _635
REMARK  264  A    between atoms: _640  and  _641
REMARK  265  A    between atoms: _643  and  _645
REMARK  266  A    between atoms: _645  and  _646
REMARK  267  A    between atoms: _645  and  _648
REMARK  268  A    between atoms: _648  and  _649
REMARK  269  A    between atoms: _652  and  _654
REMARK  270  A    between atoms: _654  and  _655
REMARK  271  A    between atoms: _654  and  _657
REMARK  272  A    between atoms: _657  and  _658
REMARK  273  A    between atoms: _658  and  _659
REMARK  274  A    between atoms: _659  and  _660
REMARK  275  A    between atoms: _660  and  _661
REMARK  276  A    between atoms: _665  and  _667
REMARK  277  A    between atoms: _667  and  _668
REMARK  278  A    between atoms: _667  and  _670
REMARK  279  A    between atoms: _670  and  _671
REMARK  280  A    between atoms: _676  and  _678
REMARK  281  A    between atoms: _678  and  _679
REMARK  282  A    between atoms: _678  and  _681
REMARK  283  A    between atoms: _681  and  _682
REMARK  284  A    between atoms: _692  and  _694
REMARK  285  A    between atoms: _694  and  _695
REMARK  286  A    between atoms: _694  and  _697
REMARK  287  A    between atoms: _697  and  _698
REMARK  288  A    between atoms: _698  and  _699
REMARK  289  A    between atoms: _702  and  _704
REMARK  290  A    between atoms: _704  and  _705
REMARK  291  A    between atoms: _704  and  _707
REMARK  292  A    between atoms: _707  and  _708
REMARK  293  A    between atoms: _711  and  _713
REMARK  294  A    between atoms: _713  and  _714
REMARK  295  A    between atoms: _713  and  _716
REMARK  296  A    between atoms: _716  and  _717
REMARK  297  A    between atoms: _722  and  _724
REMARK  298  A    between atoms: _724  and  _725
REMARK  299  A    between atoms: _724  and  _727
REMARK  300  A    between atoms: _727  and  _728
REMARK  301  A    between atoms: _734  and  _736
REMARK  302  A    between atoms: _736  and  _737
REMARK  303  A    between atoms: _736  and  _739
REMARK  304  A    between atoms: _739  and  _740
REMARK  305  A    between atoms: _742  and  _744
REMARK  306  A    between atoms: _744  and  _745
REMARK  307  A    between atoms: _747  and  _749
REMARK  308  A    between atoms: _749  and  _750
REMARK  309  A    between atoms: _749  and  _752
REMARK  310  A    between atoms: _752  and  _753
REMARK  311  A    between atoms: _758  and  _759
REMARK  312  A    between atoms: _761  and  _763
REMARK  313  A    between atoms: _763  and  _764
REMARK  314  A    between atoms: _763  and  _766
REMARK  315  A    between atoms: _766  and  _767
REMARK  316  A    between atoms: _772  and  _773
REMARK  317  A    between atoms: _775  and  _777
REMARK  318  A    between atoms: _777  and  _778
REMARK  319  A    between atoms: _777  and  _780
REMARK  320  A    between atoms: _780  and  _781
REMARK  321  A    between atoms: _785  and  ZN_876
REMARK  322  A    between atoms: _786  and  _788
REMARK  323  A    between atoms: _788  and  _789
REMARK  324  A    between atoms: _788  and  _791
REMARK  325  A    between atoms: _791  and  _792
REMARK  326  A    between atoms: _792  and  _793
REMARK  327  A    between atoms: _796  and  _798
REMARK  328  A    between atoms: _798  and  _799
REMARK  329  A    between atoms: _798  and  _801
REMARK  330  A    between atoms: _801  and  _802
REMARK  331  A    between atoms: _802  and  _803
REMARK  332  A    between atoms: _803  and  _804
REMARK  333  A    between atoms: _813  and  _815
REMARK  334  A    between atoms: _815  and  _816
REMARK  335  A    between atoms: _815  and  _818
REMARK  336  A    between atoms: _818  and  _819
REMARK  337  A    between atoms: _824  and  _825
REMARK  338  A    between atoms: _827  and  _829
REMARK  339  A    between atoms: _829  and  _830
REMARK  340  A    between atoms: _829  and  _832
REMARK  341  A    between atoms: _832  and  _833
REMARK  342  A    between atoms: _838  and  _840
REMARK  343  A    between atoms: _840  and  _841
REMARK  344  A    between atoms: _840  and  _843
REMARK  345  A    between atoms: _843  and  _844
REMARK  346  A    between atoms: _844  and  _845
REMARK  347  A    between atoms: _845  and  _846
REMARK  348  A    between atoms: _846  and  _847
REMARK  349  A    between atoms: _851  and  _853
REMARK  350  A    between atoms: _853  and  _854
REMARK  351  A    between atoms: _853  and  _856
REMARK  352  A    between atoms: _856  and  _857
REMARK  353  A    between atoms: _862  and  _863
REMARK  354  A    between atoms: _865  and  _867
REMARK  355  A    between atoms: _867  and  _868
REMARK  356  A    between atoms: _871  and  _873
REMARK  357  A    between atoms: _873  and  _874
REMARK                            x       y       z     vdW  Elec       q    Type
REMARK                         _______ _______ _______ _____ _____    ______ ____
ROOT
ATOM      1  O   HOH     1      25.360  56.020  37.144  0.00  0.00    +0.000 OA
ENDROOT
TORSDOF 0
REMARK  Name = ../refined-set-2016/2xei/2xei_pocket.pdb
REMARK  357 active torsions:
REMARK  status: ('A' for Active; 'I' for Inactive)
REMARK    1  A    between atoms: _1  and  _3
REMARK    2  A    between atoms: _3  and  _4
REMARK    3  A    between atoms: _7  and  _9
REMARK    4  A    between atoms: _9  and  _10
REMARK    5  A    between atoms: _9  and  _12
REMARK    6  A    between atoms: _12  and  _13
REMARK    7  A    between atoms: _19  and  _21
REMARK    8  A    between atoms: _21  and  _22
REMARK    9  A    between atoms: _24  and  _26
REMARK   10  A    between atoms: _26  and  _27
REMARK   11  A    between atoms: _26  and  _29
REMARK   12  A    between atoms: _29  and  _30
REMARK   13  A    between atoms: _30  and  _31
REMARK   14  A    between atoms: _31  and  _32
REMARK   15  A    between atoms: _32  and  _33
REMARK   16  A    between atoms: _37  and  _39
REMARK   17  A    between atoms: _39  and  _40
REMARK   18  A    between atoms: _39  and  _42
REMARK   19  A    between atoms: _45  and  _47
REMARK   20  A    between atoms: _47  and  _48
REMARK   21  A    between atoms: _47  and  _50
REMARK   22  A    between atoms: _50  and  _51
REMARK   23  A    between atoms: _57  and  _59
REMARK   24  A    between atoms: _59  and  _60
REMARK   25  A    between atoms: _59  and  _62
REMARK   26  A    between atoms: _62  and  _63
REMARK   27  A    between atoms: _63  and  _64
REMARK   28  A    between atoms: _64  and  _65
REMARK   29  A    between atoms: _74  and  _76
REMARK   30  A    between atoms: _76  and  _77
REMARK   31  A    between atoms: _79  and  _81
REMARK   32  A    between atoms: _81  and  _82
REMARK   33  A    between atoms: _81  and  _84
REMARK   34  A    between atoms: _84  and  _85
REMARK   35  A    between atoms: _90  and  _91
REMARK   36  A    between atoms: _93  and  _95
REMARK   37  A    between atoms: _95  and  _96
REMARK   38  A    between atoms: _95  and  _98
REMARK   39  A    between atoms: _98  and  _99
REMARK   40  A    between atoms: _99  and  _100
REMARK   41  A    between atoms: _105  and  _107
REMARK   42  A    between atoms: _107  and  _108
REMARK   43  A    between atoms: _107  and  _110
REMARK   44  A    between atoms: _110  and  _111
REMARK   45  A    between atoms: _111  and  _112
REMARK   46  A    between atoms: _112  and  _113
REMARK   47  A    between atoms: _122  and  _124
REMARK   48  A    between atoms: _124  and  _125
REMARK   49  A    between atoms: _127  and  _129
REMARK   50  A    between atoms: _129  and  _130
REMARK   51  A    between atoms: _129  and  _132
REMARK   52  A    between atoms: _132  and  _133
REMARK   53  A    between atoms: _138  and  _140
REMARK   54  A    between atoms: _140  and  _141
REMARK   55  A    between atoms: _140  and  _143
REMARK   56  A    between atoms: _143  and  _144
REMARK   57  A    between atoms: _147  and  _149
REMARK   58  A    between atoms: _149  and  _150
REMARK   59  A    between atoms: _149  and  _152
REMARK   60  A    between atoms: _152  and  _153
REMARK   61  A    between atoms: _156  and  _158
REMARK   62  A    between atoms: _158  and  _159
REMARK   63  A    between atoms: _158  and  _161
REMARK   64  A    between atoms: _161  and  _162
REMARK   65  A    between atoms: _167  and  _169
REMARK   66  A    between atoms: _169  and  _170
REMARK   67  A    between atoms: _169  and  _172
REMARK   68  A    between atoms: _172  and  _173
REMARK   69  A    between atoms: _176  and  _178
REMARK   70  A    between atoms: _178  and  _179
REMARK   71  A    between atoms: _178  and  _181
REMARK   72  A    between atoms: _181  and  _182
REMARK   73  A    between atoms: _187  and  _189
REMARK   74  A    between atoms: _189  and  _190
REMARK   75  A    between atoms: _192  and  _194
REMARK   76  A    between atoms: _194  and  _195
REMARK   77  A    between atoms: _194  and  _197
REMARK   78  A    between atoms: _197  and  _198
REMARK   79  A    between atoms: _202  and  ZN_877
REMARK   80  A    between atoms: _203  and  _205
REMARK   81  A    between atoms: _205  and  _206
REMARK   82  A    between atoms: _205  and  _208
REMARK   83  A    between atoms: _208  and  _209
REMARK   84  A    between atoms: _212  and  _214
REMARK   85  A    between atoms: _214  and  _215
REMARK   86  A    between atoms: _214  and  _217
REMARK   87  A    between atoms: _217  and  _218
REMARK   88  A    between atoms: _228  and  _230
REMARK   89  A    between atoms: _230  and  _231
REMARK   90  A    between atoms: _230  and  _233
REMARK   91  A    between atoms: _233  and  _234
REMARK   92  A    between atoms: _237  and  _239
REMARK   93  A    between atoms: _239  and  _240
REMARK   94  A    between atoms: _239  and  _242
REMARK   95  A    between atoms: _242  and  _243
REMARK   96  A    between atoms: _243  and  _244
REMARK   97  A    between atoms: _243  and  _245
REMARK   98  A    between atoms: _244  and  ZN_877
REMARK   99  A    between atoms: _245  and  ZN_876
REMARK  100  A    between atoms: _247  and  _248
REMARK  101  A    between atoms: _253  and  _255
REMARK  102  A    between atoms: _255  and  _256
REMARK  103  A    between atoms: _259  and  _261
REMARK  104  A    between atoms: _261  and  _262
REMARK  105  A    between atoms: _261  and  _264
REMARK  106  A    between atoms: _264  and  _265
REMARK  107  A    between atoms: _265  and  _266
REMARK  108  A    between atoms: _269  and  _271
REMARK  109  A    between atoms: _271  and  _272
REMARK  110  A    between atoms: _271  and  _274
REMARK  111  A    between atoms: _274  and  _275
REMARK  112  A    between atoms: _275  and  _276
REMARK  113  A    between atoms: _276  and  _278
REMARK  114  A    between atoms: _278  and  ZN_876
REMARK  115  A    between atoms: _279  and  _281
REMARK  116  A    between atoms: _281  and  _282
REMARK  117  A    between atoms: _281  and  _284
REMARK  118  A    between atoms: _284  and  _285
REMARK  119  A    between atoms: _291  and  _293
REMARK  120  A    between atoms: _293  and  _294
REMARK  121  A    between atoms: _296  and  _298
REMARK  122  A    between atoms: _298  and  _299
REMARK  123  A    between atoms: _298  and  _301
REMARK  124  A    between atoms: _301  and  _302
REMARK  125  A    between atoms: _305  and  _307
REMARK  126  A    between atoms: _307  and  _308
REMARK  127  A    between atoms: _307  and  _310
REMARK  128  A    between atoms: _310  and  _311
REMARK  129  A    between atoms: _314  and  _316
REMARK  130  A    between atoms: _316  and  _317
REMARK  131  A    between atoms: _316  and  _319
REMARK  132  A    between atoms: _319  and  _320
REMARK  133  A    between atoms: _325  and  _327
REMARK  134  A    between atoms: _327  and  _328
REMARK  135  A    between atoms: _327  and  _330
REMARK  136  A    between atoms: _330  and  _331
REMARK  137  A    between atoms: _331  and  _333
REMARK  138  A    between atoms: _333  and  ZN_877
REMARK  139  A    between atoms: _334  and  _336
REMARK  140  A    between atoms: _336  and  _337
REMARK  141  A    between atoms: _336  and  _339
REMARK  142  A    between atoms: _339  and  _340
REMARK  143  A    between atoms: _342  and  _344
REMARK  144  A    between atoms: _344  and  _345
REMARK  145  A    between atoms: _344  and  _347
REMARK  146  A    between atoms: _347  and  _348
REMARK  147  A    between atoms: _350  and  _352
REMARK  148  A    between atoms: _352  and  _353
REMARK  149  A    between atoms: _352  and  _355
REMARK  150  A    between atoms: _355  and  _356
REMARK  151  A    between atoms: _359  and  _361
REMARK  152  A    between atoms: _361  and  _362
REMARK  153  A    between atoms: _361  and  _364
REMARK  154  A    between atoms: _364  and  _365
REMARK  155  A    between atoms: _365  and  _366
REMARK  156  A    between atoms: _369  and  _371
REMARK  157  A    between atoms: _371  and  _372
REMARK  158  A    between atoms: _371  and  _374
REMARK  159  A    between atoms: _374  and  _375
REMARK  160  A    between atoms: _380  and  _381
REMARK  161  A    between atoms: _383  and  _385
REMARK  162  A    between atoms: _385  and  _386
REMARK  163  A    between atoms: _385  and  _388
REMARK  164  A    between atoms: _388  and  _389
REMARK  165  A    between atoms: _392  and  _394
REMARK  166  A    between atoms: _394  and  _395
REMARK  167  A    between atoms: _394  and  _397
REMARK  168  A    between atoms: _397  and  _398
REMARK  169  A    between atoms: _401  and  _403
REMARK  170  A    between atoms: _403  and  _404
REMARK  171  A    between atoms: _403  and  _406
REMARK  172  A    between atoms: _406  and  _407
REMARK  173  A    between atoms: _407  and  _408
REMARK  174  A    between atoms: _408  and  _409
REMARK  175  A    between atoms: _418  and  _420
REMARK  176  A    between atoms: _420  and  _421
REMARK  177  A    between atoms: _420  and  _423
REMARK  178  A    between atoms: _426  and  _428
REMARK  179  A    between atoms: _428  and  _429
REMARK  180  A    between atoms: _428  and  _431
REMARK  181  A    between atoms: _431  and  _432
REMARK  182  A    between atoms: _435  and  _437
REMARK  183  A    between atoms: _437  and  _438
REMARK  184  A    between atoms: _437  and  _440
REMARK  185  A    between atoms: _440  and  _441
REMARK  186  A    between atoms: _451  and  _453
REMARK  187  A    between atoms: _453  and  _454
REMARK  188  A    between atoms: _453  and  _456
REMARK  189  A    between atoms: _456  and  _457
REMARK  190  A    between atoms: _457  and  _458
REMARK  191  A    between atoms: _458  and  _459
REMARK  192  A    between atoms: _459  and  _460
REMARK  193  A    between atoms: _464  and  _466
REMARK  194  A    between atoms: _466  and  _467
REMARK  195  A    between atoms: _466  and  _469
REMARK  196  A    between atoms: _469  and  _470
REMARK  197  A    between atoms: _473  and  _474
REMARK  198  A    between atoms: _479  and  _481
REMARK  199  A    between atoms: _481  and  _482
REMARK  200  A    between atoms: _481  and  _484
REMARK  201  A    between atoms: _484  and  _485
REMARK  202  A    between atoms: _485  and  _486
REMARK  203  A    between atoms: _486  and  _487
REMARK  204  A    between atoms: _496  and  _498
REMARK  205  A    between atoms: _498  and  _499
REMARK  206  A    between atoms: _498  and  _501
REMARK  207  A    between atoms: _501  and  _502
REMARK  208  A    between atoms: _505  and  _507
REMARK  209  A    between atoms: _507  and  _508
REMARK  210  A    between atoms: _507  and  _510
REMARK  211  A    between atoms: _510  and  _511
REMARK  212  A    between atoms: _513  and  _515
REMARK  213  A    between atoms: _515  and  _516
REMARK  214  A    between atoms: _515  and  _518
REMARK  215  A    between atoms: _518  and  _519
REMARK  216  A    between atoms: _519  and  _520
REMARK  217  A    between atoms: _520  and  _521
REMARK  218  A    between atoms: _521  and  _522
REMARK  219  A    between atoms: _526  and  _528
REMARK  220  A    between atoms: _528  and  _529
REMARK  221  A    between atoms: _528  and  _531
REMARK  222  A    between atoms: _531  and  _532
REMARK  223  A    between atoms: _535  and  _537
REMARK  224  A    between atoms: _537  and  _538
REMARK  225  A    between atoms: _540  and  _542
REMARK  226  A    between atoms: _542  and  _543
REMARK  227  A    between atoms: _542  and  _545
REMARK  228  A    between atoms: _545  and  _546
REMARK  229  A    between atoms: _548  and  _550
REMARK  230  A    between atoms: _550  and  _551
REMARK  231  A    between atoms: _553  and  _555
REMARK  232  A    between atoms: _555  and  _556
REMARK  233  A    between atoms: _555  and  _558
REMARK  234  A    between atoms: _558  and  _559
REMARK  235  A    between atoms: _564  and  _566
REMARK  236  A    between atoms: _566  and  _567
REMARK  237  A    between atoms: _566  and  _569
REMARK  238  A    between atoms: _569  and  _570
REMARK  239  A    between atoms: _573  and  _575
REMARK  240  A    between atoms: _575  and  _576
REMARK  241  A    between atoms: _575  and  _578
REMARK  242  A    between atoms: _578  and  _579
REMARK  243  A    between atoms: _585  and  _587
REMARK  244  A    between atoms: _587  and  _588
REMARK  245  A    between atoms: _587  and  _590
REMARK  246  A    between atoms: _590  and  _591
REMARK  247  A    between atoms: _591  and  _592
REMARK  248  A    between atoms: _595  and  _597
REMARK  249  A    between atoms: _597  and  _598
REMARK  250  A    between atoms: _597  and  _600
REMARK  251  A    between atoms: _600  and  _601
REMARK  252  A    between atoms: _601  and  _602
REMARK  253  A    between atoms: _602  and  _603
REMARK  254  A    between atoms: _612  and  _614
REMARK  255  A    between atoms: _614  and  _615
REMARK  256  A    between atoms: _614  and  _617
REMARK  257  A    between atoms: _617  and  _618
REMARK  258  A    between atoms: _618  and  _619
REMARK  259  A    between atoms: _619  and  _620
REMARK  260  A    between atoms: _629  and  _631
REMARK  261  A    between atoms: _631  and  _632
REMARK  262  A    between atoms: _631  and  _634
REMARK  263  A    between atoms: _634  and  _635
REMARK  264  A    between atoms: _640  and  _641
REMARK  265  A    between atoms: _643  and  _645
REMARK  266  A    between atoms: _645  and  _646
REMARK  267  A    between atoms: _645  and  _648
REMARK  268  A    between atoms: _648  and  _649
REMARK  269  A    between atoms: _652  and  _654
REMARK  270  A    between atoms: _654  and  _655
REMARK  271  A    between atoms: _654  and  _657
REMARK  272  A    between atoms: _657  and  _658
REMARK  273  A    between atoms: _658  and  _659
REMARK  274  A    between atoms: _659  and  _660
REMARK  275  A    between atoms: _660  and  _661
REMARK  276  A    between atoms: _665  and  _667
REMARK  277  A    between atoms: _667  and  _668
REMARK  278  A    between atoms: _667  and  _670
REMARK  279  A    between atoms: _670  and  _671
REMARK  280  A    between atoms: _676  and  _678
REMARK  281  A    between atoms: _678  and  _679
REMARK  282  A    between atoms: _678  and  _681
REMARK  283  A    between atoms: _681  and  _682
REMARK  284  A    between atoms: _692  and  _694
REMARK  285  A    between atoms: _694  and  _695
REMARK  286  A    between atoms: _694  and  _697
REMARK  287  A    between atoms: _697  and  _698
REMARK  288  A    between atoms: _698  and  _699
REMARK  289  A    between atoms: _702  and  _704
REMARK  290  A    between atoms: _704  and  _705
REMARK  291  A    between atoms: _704  and  _707
REMARK  292  A    between atoms: _707  and  _708
REMARK  293  A    between atoms: _711  and  _713
REMARK  294  A    between atoms: _713  and  _714
REMARK  295  A    between atoms: _713  and  _716
REMARK  296  A    between atoms: _716  and  _717
REMARK  297  A    between atoms: _722  and  _724
REMARK  298  A    between atoms: _724  and  _725
REMARK  299  A    between atoms: _724  and  _727
REMARK  300  A    between atoms: _727  and  _728
REMARK  301  A    between atoms: _734  and  _736
REMARK  302  A    between atoms: _736  and  _737
REMARK  303  A    between atoms: _736  and  _739
REMARK  304  A    between atoms: _739  and  _740
REMARK  305  A    between atoms: _742  and  _744
REMARK  306  A    between atoms: _744  and  _745
REMARK  307  A    between atoms: _747  and  _749
REMARK  308  A    between atoms: _749  and  _750
REMARK  309  A    between atoms: _749  and  _752
REMARK  310  A    between atoms: _752  and  _753
REMARK  311  A    between atoms: _758  and  _759
REMARK  312  A    between atoms: _761  and  _763
REMARK  313  A    between atoms: _763  and  _764
REMARK  314  A    between atoms: _763  and  _766
REMARK  315  A    between atoms: _766  and  _767
REMARK  316  A    between atoms: _772  and  _773
REMARK  317  A    between atoms: _775  and  _777
REMARK  318  A    between atoms: _777  and  _778
REMARK  319  A    between atoms: _777  and  _780
REMARK  320  A    between atoms: _780  and  _781
REMARK  321  A    between atoms: _785  and  ZN_876
REMARK  322  A    between atoms: _786  and  _788
REMARK  323  A    between atoms: _788  and  _789
REMARK  324  A    between atoms: _788  and  _791
REMARK  325  A    between atoms: _791  and  _792
REMARK  326  A    between atoms: _792  and  _793
REMARK  327  A    between atoms: _796  and  _798
REMARK  328  A    between atoms: _798  and  _799
REMARK  329  A    between atoms: _798  and  _801
REMARK  330  A    between atoms: _801  and  _802
REMARK  331  A    between atoms: _802  and  _803
REMARK  332  A    between atoms: _803  and  _804
REMARK  333  A    between atoms: _813  and  _815
REMARK  334  A    between atoms: _815  and  _816
REMARK  335  A    between atoms: _815  and  _818
REMARK  336  A    between atoms: _818  and  _819
REMARK  337  A    between atoms: _824  and  _825
REMARK  338  A    between atoms: _827  and  _829
REMARK  339  A    between atoms: _829  and  _830
REMARK  340  A    between atoms: _829  and  _832
REMARK  341  A    between atoms: _832  and  _833
REMARK  342  A    between atoms: _838  and  _840
REMARK  343  A    between atoms: _840  and  _841
REMARK  344  A    between atoms: _840  and  _843
REMARK  345  A    between atoms: _843  and  _844
REMARK  346  A    between atoms: _844  and  _845
REMARK  347  A    between atoms: _845  and  _846
REMARK  348  A    between atoms: _846  and  _847
REMARK  349  A    between atoms: _851  and  _853
REMARK  350  A    between atoms: _853  and  _854
REMARK  351  A    between atoms: _853  and  _856
REMARK  352  A    between atoms: _856  and  _857
REMARK  353  A    between atoms: _862  and  _863
REMARK  354  A    between atoms: _865  and  _867
REMARK  355  A    between atoms: _867  and  _868
REMARK  356  A    between atoms: _871  and  _873
REMARK  357  A    between atoms: _873  and  _874
REMARK                            x       y       z     vdW  Elec       q    Type
REMARK                         _______ _______ _______ _____ _____    ______ ____
ROOT
ATOM      1  O   HOH     1      11.919  50.033  36.280  0.00  0.00    +0.000 OA
ENDROOT
TORSDOF 0
REMARK  Name = ../refined-set-2016/2xei/2xei_pocket.pdb
REMARK  357 active torsions:
REMARK  status: ('A' for Active; 'I' for Inactive)
REMARK    1  A    between atoms: _1  and  _3
REMARK    2  A    between atoms: _3  and  _4
REMARK    3  A    between atoms: _7  and  _9
REMARK    4  A    between atoms: _9  and  _10
REMARK    5  A    between atoms: _9  and  _12
REMARK    6  A    between atoms: _12  and  _13
REMARK    7  A    between atoms: _19  and  _21
REMARK    8  A    between atoms: _21  and  _22
REMARK    9  A    between atoms: _24  and  _26
REMARK   10  A    between atoms: _26  and  _27
REMARK   11  A    between atoms: _26  and  _29
REMARK   12  A    between atoms: _29  and  _30
REMARK   13  A    between atoms: _30  and  _31
REMARK   14  A    between atoms: _31  and  _32
REMARK   15  A    between atoms: _32  and  _33
REMARK   16  A    between atoms: _37  and  _39
REMARK   17  A    between atoms: _39  and  _40
REMARK   18  A    between atoms: _39  and  _42
REMARK   19  A    between atoms: _45  and  _47
REMARK   20  A    between atoms: _47  and  _48
REMARK   21  A    between atoms: _47  and  _50
REMARK   22  A    between atoms: _50  and  _51
REMARK   23  A    between atoms: _57  and  _59
REMARK   24  A    between atoms: _59  and  _60
REMARK   25  A    between atoms: _59  and  _62
REMARK   26  A    between atoms: _62  and  _63
REMARK   27  A    between atoms: _63  and  _64
REMARK   28  A    between atoms: _64  and  _65
REMARK   29  A    between atoms: _74  and  _76
REMARK   30  A    between atoms: _76  and  _77
REMARK   31  A    between atoms: _79  and  _81
REMARK   32  A    between atoms: _81  and  _82
REMARK   33  A    between atoms: _81  and  _84
REMARK   34  A    between atoms: _84  and  _85
REMARK   35  A    between atoms: _90  and  _91
REMARK   36  A    between atoms: _93  and  _95
REMARK   37  A    between atoms: _95  and  _96
REMARK   38  A    between atoms: _95  and  _98
REMARK   39  A    between atoms: _98  and  _99
REMARK   40  A    between atoms: _99  and  _100
REMARK   41  A    between atoms: _105  and  _107
REMARK   42  A    between atoms: _107  and  _108
REMARK   43  A    between atoms: _107  and  _110
REMARK   44  A    between atoms: _110  and  _111
REMARK   45  A    between atoms: _111  and  _112
REMARK   46  A    between atoms: _112  and  _113
REMARK   47  A    between atoms: _122  and  _124
REMARK   48  A    between atoms: _124  and  _125
REMARK   49  A    between atoms: _127  and  _129
REMARK   50  A    between atoms: _129  and  _130
REMARK   51  A    between atoms: _129  and  _132
REMARK   52  A    between atoms: _132  and  _133
REMARK   53  A    between atoms: _138  and  _140
REMARK   54  A    between atoms: _140  and  _141
REMARK   55  A    between atoms: _140  and  _143
REMARK   56  A    between atoms: _143  and  _144
REMARK   57  A    between atoms: _147  and  _149
REMARK   58  A    between atoms: _149  and  _150
REMARK   59  A    between atoms: _149  and  _152
REMARK   60  A    between atoms: _152  and  _153
REMARK   61  A    between atoms: _156  and  _158
REMARK   62  A    between atoms: _158  and  _159
REMARK   63  A    between atoms: _158  and  _161
REMARK   64  A    between atoms: _161  and  _162
REMARK   65  A    between atoms: _167  and  _169
REMARK   66  A    between atoms: _169  and  _170
REMARK   67  A    between atoms: _169  and  _172
REMARK   68  A    between atoms: _172  and  _173
REMARK   69  A    between atoms: _176  and  _178
REMARK   70  A    between atoms: _178  and  _179
REMARK   71  A    between atoms: _178  and  _181
REMARK   72  A    between atoms: _181  and  _182
REMARK   73  A    between atoms: _187  and  _189
REMARK   74  A    between atoms: _189  and  _190
REMARK   75  A    between atoms: _192  and  _194
REMARK   76  A    between atoms: _194  and  _195
REMARK   77  A    between atoms: _194  and  _197
REMARK   78  A    between atoms: _197  and  _198
REMARK   79  A    between atoms: _202  and  ZN_877
REMARK   80  A    between atoms: _203  and  _205
REMARK   81  A    between atoms: _205  and  _206
REMARK   82  A    between atoms: _205  and  _208
REMARK   83  A    between atoms: _208  and  _209
REMARK   84  A    between atoms: _212  and  _214
REMARK   85  A    between atoms: _214  and  _215
REMARK   86  A    between atoms: _214  and  _217
REMARK   87  A    between atoms: _217  and  _218
REMARK   88  A    between atoms: _228  and  _230
REMARK   89  A    between atoms: _230  and  _231
REMARK   90  A    between atoms: _230  and  _233
REMARK   91  A    between atoms: _233  and  _234
REMARK   92  A    between atoms: _237  and  _239
REMARK   93  A    between atoms: _239  and  _240
REMARK   94  A    between atoms: _239  and  _242
REMARK   95  A    between atoms: _242  and  _243
REMARK   96  A    between atoms: _243  and  _244
REMARK   97  A    between atoms: _243  and  _245
REMARK   98  A    between atoms: _244  and  ZN_877
REMARK   99  A    between atoms: _245  and  ZN_876
REMARK  100  A    between atoms: _247  and  _248
REMARK  101  A    between atoms: _253  and  _255
REMARK  102  A    between atoms: _255  and  _256
REMARK  103  A    between atoms: _259  and  _261
REMARK  104  A    between atoms: _261  and  _262
REMARK  105  A    between atoms: _261  and  _264
REMARK  106  A    between atoms: _264  and  _265
REMARK  107  A    between atoms: _265  and  _266
REMARK  108  A    between atoms: _269  and  _271
REMARK  109  A    between atoms: _271  and  _272
REMARK  110  A    between atoms: _271  and  _274
REMARK  111  A    between atoms: _274  and  _275
REMARK  112  A    between atoms: _275  and  _276
REMARK  113  A    between atoms: _276  and  _278
REMARK  114  A    between atoms: _278  and  ZN_876
REMARK  115  A    between atoms: _279  and  _281
REMARK  116  A    between atoms: _281  and  _282
REMARK  117  A    between atoms: _281  and  _284
REMARK  118  A    between atoms: _284  and  _285
REMARK  119  A    between atoms: _291  and  _293
REMARK  120  A    between atoms: _293  and  _294
REMARK  121  A    between atoms: _296  and  _298
REMARK  122  A    between atoms: _298  and  _299
REMARK  123  A    between atoms: _298  and  _301
REMARK  124  A    between atoms: _301  and  _302
REMARK  125  A    between atoms: _305  and  _307
REMARK  126  A    between atoms: _307  and  _308
REMARK  127  A    between atoms: _307  and  _310
REMARK  128  A    between atoms: _310  and  _311
REMARK  129  A    between atoms: _314  and  _316
REMARK  130  A    between atoms: _316  and  _317
REMARK  131  A    between atoms: _316  and  _319
REMARK  132  A    between atoms: _319  and  _320
REMARK  133  A    between atoms: _325  and  _327
REMARK  134  A    between atoms: _327  and  _328
REMARK  135  A    between atoms: _327  and  _330
REMARK  136  A    between atoms: _330  and  _331
REMARK  137  A    between atoms: _331  and  _333
REMARK  138  A    between atoms: _333  and  ZN_877
REMARK  139  A    between atoms: _334  and  _336
REMARK  140  A    between atoms: _336  and  _337
REMARK  141  A    between atoms: _336  and  _339
REMARK  142  A    between atoms: _339  and  _340
REMARK  143  A    between atoms: _342  and  _344
REMARK  144  A    between atoms: _344  and  _345
REMARK  145  A    between atoms: _344  and  _347
REMARK  146  A    between atoms: _347  and  _348
REMARK  147  A    between atoms: _350  and  _352
REMARK  148  A    between atoms: _352  and  _353
REMARK  149  A    between atoms: _352  and  _355
REMARK  150  A    between atoms: _355  and  _356
REMARK  151  A    between atoms: _359  and  _361
REMARK  152  A    between atoms: _361  and  _362
REMARK  153  A    between atoms: _361  and  _364
REMARK  154  A    between atoms: _364  and  _365
REMARK  155  A    between atoms: _365  and  _366
REMARK  156  A    between atoms: _369  and  _371
REMARK  157  A    between atoms: _371  and  _372
REMARK  158  A    between atoms: _371  and  _374
REMARK  159  A    between atoms: _374  and  _375
REMARK  160  A    between atoms: _380  and  _381
REMARK  161  A    between atoms: _383  and  _385
REMARK  162  A    between atoms: _385  and  _386
REMARK  163  A    between atoms: _385  and  _388
REMARK  164  A    between atoms: _388  and  _389
REMARK  165  A    between atoms: _392  and  _394
REMARK  166  A    between atoms: _394  and  _395
REMARK  167  A    between atoms: _394  and  _397
REMARK  168  A    between atoms: _397  and  _398
REMARK  169  A    between atoms: _401  and  _403
REMARK  170  A    between atoms: _403  and  _404
REMARK  171  A    between atoms: _403  and  _406
REMARK  172  A    between atoms: _406  and  _407
REMARK  173  A    between atoms: _407  and  _408
REMARK  174  A    between atoms: _408  and  _409
REMARK  175  A    between atoms: _418  and  _420
REMARK  176  A    between atoms: _420  and  _421
REMARK  177  A    between atoms: _420  and  _423
REMARK  178  A    between atoms: _426  and  _428
REMARK  179  A    between atoms: _428  and  _429
REMARK  180  A    between atoms: _428  and  _431
REMARK  181  A    between atoms: _431  and  _432
REMARK  182  A    between atoms: _435  and  _437
REMARK  183  A    between atoms: _437  and  _438
REMARK  184  A    between atoms: _437  and  _440
REMARK  185  A    between atoms: _440  and  _441
REMARK  186  A    between atoms: _451  and  _453
REMARK  187  A    between atoms: _453  and  _454
REMARK  188  A    between atoms: _453  and  _456
REMARK  189  A    between atoms: _456  and  _457
REMARK  190  A    between atoms: _457  and  _458
REMARK  191  A    between atoms: _458  and  _459
REMARK  192  A    between atoms: _459  and  _460
REMARK  193  A    between atoms: _464  and  _466
REMARK  194  A    between atoms: _466  and  _467
REMARK  195  A    between atoms: _466  and  _469
REMARK  196  A    between atoms: _469  and  _470
REMARK  197  A    between atoms: _473  and  _474
REMARK  198  A    between atoms: _479  and  _481
REMARK  199  A    between atoms: _481  and  _482
REMARK  200  A    between atoms: _481  and  _484
REMARK  201  A    between atoms: _484  and  _485
REMARK  202  A    between atoms: _485  and  _486
REMARK  203  A    between atoms: _486  and  _487
REMARK  204  A    between atoms: _496  and  _498
REMARK  205  A    between atoms: _498  and  _499
REMARK  206  A    between atoms: _498  and  _501
REMARK  207  A    between atoms: _501  and  _502
REMARK  208  A    between atoms: _505  and  _507
REMARK  209  A    between atoms: _507  and  _508
REMARK  210  A    between atoms: _507  and  _510
REMARK  211  A    between atoms: _510  and  _511
REMARK  212  A    between atoms: _513  and  _515
REMARK  213  A    between atoms: _515  and  _516
REMARK  214  A    between atoms: _515  and  _518
REMARK  215  A    between atoms: _518  and  _519
REMARK  216  A    between atoms: _519  and  _520
REMARK  217  A    between atoms: _520  and  _521
REMARK  218  A    between atoms: _521  and  _522
REMARK  219  A    between atoms: _526  and  _528
REMARK  220  A    between atoms: _528  and  _529
REMARK  221  A    between atoms: _528  and  _531
REMARK  222  A    between atoms: _531  and  _532
REMARK  223  A    between atoms: _535  and  _537
REMARK  224  A    between atoms: _537  and  _538
REMARK  225  A    between atoms: _540  and  _542
REMARK  226  A    between atoms: _542  and  _543
REMARK  227  A    between atoms: _542  and  _545
REMARK  228  A    between atoms: _545  and  _546
REMARK  229  A    between atoms: _548  and  _550
REMARK  230  A    between atoms: _550  and  _551
REMARK  231  A    between atoms: _553  and  _555
REMARK  232  A    between atoms: _555  and  _556
REMARK  233  A    between atoms: _555  and  _558
REMARK  234  A    between atoms: _558  and  _559
REMARK  235  A    between atoms: _564  and  _566
REMARK  236  A    between atoms: _566  and  _567
REMARK  237  A    between atoms: _566  and  _569
REMARK  238  A    between atoms: _569  and  _570
REMARK  239  A    between atoms: _573  and  _575
REMARK  240  A    between atoms: _575  and  _576
REMARK  241  A    between atoms: _575  and  _578
REMARK  242  A    between atoms: _578  and  _579
REMARK  243  A    between atoms: _585  and  _587
REMARK  244  A    between atoms: _587  and  _588
REMARK  245  A    between atoms: _587  and  _590
REMARK  246  A    between atoms: _590  and  _591
REMARK  247  A    between atoms: _591  and  _592
REMARK  248  A    between atoms: _595  and  _597
REMARK  249  A    between atoms: _597  and  _598
REMARK  250  A    between atoms: _597  and  _600
REMARK  251  A    between atoms: _600  and  _601
REMARK  252  A    between atoms: _601  and  _602
REMARK  253  A    between atoms: _602  and  _603
REMARK  254  A    between atoms: _612  and  _614
REMARK  255  A    between atoms: _614  and  _615
REMARK  256  A    between atoms: _614  and  _617
REMARK  257  A    between atoms: _617  and  _618
REMARK  258  A    between atoms: _618  and  _619
REMARK  259  A    between atoms: _619  and  _620
REMARK  260  A    between atoms: _629  and  _631
REMARK  261  A    between atoms: _631  and  _632
REMARK  262  A    between atoms: _631  and  _634
REMARK  263  A    between atoms: _634  and  _635
REMARK  264  A    between atoms: _640  and  _641
REMARK  265  A    between atoms: _643  and  _645
REMARK  266  A    between atoms: _645  and  _646
REMARK  267  A    between atoms: _645  and  _648
REMARK  268  A    between atoms: _648  and  _649
REMARK  269  A    between atoms: _652  and  _654
REMARK  270  A    between atoms: _654  and  _655
REMARK  271  A    between atoms: _654  and  _657
REMARK  272  A    between atoms: _657  and  _658
REMARK  273  A    between atoms: _658  and  _659
REMARK  274  A    between atoms: _659  and  _660
REMARK  275  A    between atoms: _660  and  _661
REMARK  276  A    between atoms: _665  and  _667
REMARK  277  A    between atoms: _667  and  _668
REMARK  278  A    between atoms: _667  and  _670
REMARK  279  A    between atoms: _670  and  _671
REMARK  280  A    between atoms: _676  and  _678
REMARK  281  A    between atoms: _678  and  _679
REMARK  282  A    between atoms: _678  and  _681
REMARK  283  A    between atoms: _681  and  _682
REMARK  284  A    between atoms: _692  and  _694
REMARK  285  A    between atoms: _694  and  _695
REMARK  286  A    between atoms: _694  and  _697
REMARK  287  A    between atoms: _697  and  _698
REMARK  288  A    between atoms: _698  and  _699
REMARK  289  A    between atoms: _702  and  _704
REMARK  290  A    between atoms: _704  and  _705
REMARK  291  A    between atoms: _704  and  _707
REMARK  292  A    between atoms: _707  and  _708
REMARK  293  A    between atoms: _711  and  _713
REMARK  294  A    between atoms: _713  and  _714
REMARK  295  A    between atoms: _713  and  _716
REMARK  296  A    between atoms: _716  and  _717
REMARK  297  A    between atoms: _722  and  _724
REMARK  298  A    between atoms: _724  and  _725
REMARK  299  A    between atoms: _724  and  _727
REMARK  300  A    between atoms: _727  and  _728
REMARK  301  A    between atoms: _734  and  _736
REMARK  302  A    between atoms: _736  and  _737
REMARK  303  A    between atoms: _736  and  _739
REMARK  304  A    between atoms: _739  and  _740
REMARK  305  A    between atoms: _742  and  _744
REMARK  306  A    between atoms: _744  and  _745
REMARK  307  A    between atoms: _747  and  _749
REMARK  308  A    between atoms: _749  and  _750
REMARK  309  A    between atoms: _749  and  _752
REMARK  310  A    between atoms: _752  and  _753
REMARK  311  A    between atoms: _758  and  _759
REMARK  312  A    between atoms: _761  and  _763
REMARK  313  A    between atoms: _763  and  _764
REMARK  314  A    between atoms: _763  and  _766
REMARK  315  A    between atoms: _766  and  _767
REMARK  316  A    between atoms: _772  and  _773
REMARK  317  A    between atoms: _775  and  _777
REMARK  318  A    between atoms: _777  and  _778
REMARK  319  A    between atoms: _777  and  _780
REMARK  320  A    between atoms: _780  and  _781
REMARK  321  A    between atoms: _785  and  ZN_876
REMARK  322  A    between atoms: _786  and  _788
REMARK  323  A    between atoms: _788  and  _789
REMARK  324  A    between atoms: _788  and  _791
REMARK  325  A    between atoms: _791  and  _792
REMARK  326  A    between atoms: _792  and  _793
REMARK  327  A    between atoms: _796  and  _798
REMARK  328  A    between atoms: _798  and  _799
REMARK  329  A    between atoms: _798  and  _801
REMARK  330  A    between atoms: _801  and  _802
REMARK  331  A    between atoms: _802  and  _803
REMARK  332  A    between atoms: _803  and  _804
REMARK  333  A    between atoms: _813  and  _815
REMARK  334  A    between atoms: _815  and  _816
REMARK  335  A    between atoms: _815  and  _818
REMARK  336  A    between atoms: _818  and  _819
REMARK  337  A    between atoms: _824  and  _825
REMARK  338  A    between atoms: _827  and  _829
REMARK  339  A    between atoms: _829  and  _830
REMARK  340  A    between atoms: _829  and  _832
REMARK  341  A    between atoms: _832  and  _833
REMARK  342  A    between atoms: _838  and  _840
REMARK  343  A    between atoms: _840  and  _841
REMARK  344  A    between atoms: _840  and  _843
REMARK  345  A    between atoms: _843  and  _844
REMARK  346  A    between atoms: _844  and  _845
REMARK  347  A    between atoms: _845  and  _846
REMARK  348  A    between atoms: _846  and  _847
REMARK  349  A    between atoms: _851  and  _853
REMARK  350  A    between atoms: _853  and  _854
REMARK  351  A    between atoms: _853  and  _856
REMARK  352  A    between atoms: _856  and  _857
REMARK  353  A    between atoms: _862  and  _863
REMARK  354  A    between atoms: _865  and  _867
REMARK  355  A    between atoms: _867  and  _868
REMARK  356  A    between atoms: _871  and  _873
REMARK  357  A    between atoms: _873  and  _874
REMARK                            x       y       z     vdW  Elec       q    Type
REMARK                         _______ _______ _______ _____ _____    ______ ____
ROOT
ATOM      1  O   HOH     1      20.601  45.722  36.326  0.00  0.00    +0.000 OA
ENDROOT
TORSDOF 0
REMARK  Name = ../refined-set-2016/2xei/2xei_pocket.pdb
REMARK  357 active torsions:
REMARK  status: ('A' for Active; 'I' for Inactive)
REMARK    1  A    between atoms: _1  and  _3
REMARK    2  A    between atoms: _3  and  _4
REMARK    3  A    between atoms: _7  and  _9
REMARK    4  A    between atoms: _9  and  _10
REMARK    5  A    between atoms: _9  and  _12
REMARK    6  A    between atoms: _12  and  _13
REMARK    7  A    between atoms: _19  and  _21
REMARK    8  A    between atoms: _21  and  _22
REMARK    9  A    between atoms: _24  and  _26
REMARK   10  A    between atoms: _26  and  _27
REMARK   11  A    between atoms: _26  and  _29
REMARK   12  A    between atoms: _29  and  _30
REMARK   13  A    between atoms: _30  and  _31
REMARK   14  A    between atoms: _31  and  _32
REMARK   15  A    between atoms: _32  and  _33
REMARK   16  A    between atoms: _37  and  _39
REMARK   17  A    between atoms: _39  and  _40
REMARK   18  A    between atoms: _39  and  _42
REMARK   19  A    between atoms: _45  and  _47
REMARK   20  A    between atoms: _47  and  _48
REMARK   21  A    between atoms: _47  and  _50
REMARK   22  A    between atoms: _50  and  _51
REMARK   23  A    between atoms: _57  and  _59
REMARK   24  A    between atoms: _59  and  _60
REMARK   25  A    between atoms: _59  and  _62
REMARK   26  A    between atoms: _62  and  _63
REMARK   27  A    between atoms: _63  and  _64
REMARK   28  A    between atoms: _64  and  _65
REMARK   29  A    between atoms: _74  and  _76
REMARK   30  A    between atoms: _76  and  _77
REMARK   31  A    between atoms: _79  and  _81
REMARK   32  A    between atoms: _81  and  _82
REMARK   33  A    between atoms: _81  and  _84
REMARK   34  A    between atoms: _84  and  _85
REMARK   35  A    between atoms: _90  and  _91
REMARK   36  A    between atoms: _93  and  _95
REMARK   37  A    between atoms: _95  and  _96
REMARK   38  A    between atoms: _95  and  _98
REMARK   39  A    between atoms: _98  and  _99
REMARK   40  A    between atoms: _99  and  _100
REMARK   41  A    between atoms: _105  and  _107
REMARK   42  A    between atoms: _107  and  _108
REMARK   43  A    between atoms: _107  and  _110
REMARK   44  A    between atoms: _110  and  _111
REMARK   45  A    between atoms: _111  and  _112
REMARK   46  A    between atoms: _112  and  _113
REMARK   47  A    between atoms: _122  and  _124
REMARK   48  A    between atoms: _124  and  _125
REMARK   49  A    between atoms: _127  and  _129
REMARK   50  A    between atoms: _129  and  _130
REMARK   51  A    between atoms: _129  and  _132
REMARK   52  A    between atoms: _132  and  _133
REMARK   53  A    between atoms: _138  and  _140
REMARK   54  A    between atoms: _140  and  _141
REMARK   55  A    between atoms: _140  and  _143
REMARK   56  A    between atoms: _143  and  _144
REMARK   57  A    between atoms: _147  and  _149
REMARK   58  A    between atoms: _149  and  _150
REMARK   59  A    between atoms: _149  and  _152
REMARK   60  A    between atoms: _152  and  _153
REMARK   61  A    between atoms: _156  and  _158
REMARK   62  A    between atoms: _158  and  _159
REMARK   63  A    between atoms: _158  and  _161
REMARK   64  A    between atoms: _161  and  _162
REMARK   65  A    between atoms: _167  and  _169
REMARK   66  A    between atoms: _169  and  _170
REMARK   67  A    between atoms: _169  and  _172
REMARK   68  A    between atoms: _172  and  _173
REMARK   69  A    between atoms: _176  and  _178
REMARK   70  A    between atoms: _178  and  _179
REMARK   71  A    between atoms: _178  and  _181
REMARK   72  A    between atoms: _181  and  _182
REMARK   73  A    between atoms: _187  and  _189
REMARK   74  A    between atoms: _189  and  _190
REMARK   75  A    between atoms: _192  and  _194
REMARK   76  A    between atoms: _194  and  _195
REMARK   77  A    between atoms: _194  and  _197
REMARK   78  A    between atoms: _197  and  _198
REMARK   79  A    between atoms: _202  and  ZN_877
REMARK   80  A    between atoms: _203  and  _205
REMARK   81  A    between atoms: _205  and  _206
REMARK   82  A    between atoms: _205  and  _208
REMARK   83  A    between atoms: _208  and  _209
REMARK   84  A    between atoms: _212  and  _214
REMARK   85  A    between atoms: _214  and  _215
REMARK   86  A    between atoms: _214  and  _217
REMARK   87  A    between atoms: _217  and  _218
REMARK   88  A    between atoms: _228  and  _230
REMARK   89  A    between atoms: _230  and  _231
REMARK   90  A    between atoms: _230  and  _233
REMARK   91  A    between atoms: _233  and  _234
REMARK   92  A    between atoms: _237  and  _239
REMARK   93  A    between atoms: _239  and  _240
REMARK   94  A    between atoms: _239  and  _242
REMARK   95  A    between atoms: _242  and  _243
REMARK   96  A    between atoms: _243  and  _244
REMARK   97  A    between atoms: _243  and  _245
REMARK   98  A    between atoms: _244  and  ZN_877
REMARK   99  A    between atoms: _245  and  ZN_876
REMARK  100  A    between atoms: _247  and  _248
REMARK  101  A    between atoms: _253  and  _255
REMARK  102  A    between atoms: _255  and  _256
REMARK  103  A    between atoms: _259  and  _261
REMARK  104  A    between atoms: _261  and  _262
REMARK  105  A    between atoms: _261  and  _264
REMARK  106  A    between atoms: _264  and  _265
REMARK  107  A    between atoms: _265  and  _266
REMARK  108  A    between atoms: _269  and  _271
REMARK  109  A    between atoms: _271  and  _272
REMARK  110  A    between atoms: _271  and  _274
REMARK  111  A    between atoms: _274  and  _275
REMARK  112  A    between atoms: _275  and  _276
REMARK  113  A    between atoms: _276  and  _278
REMARK  114  A    between atoms: _278  and  ZN_876
REMARK  115  A    between atoms: _279  and  _281
REMARK  116  A    between atoms: _281  and  _282
REMARK  117  A    between atoms: _281  and  _284
REMARK  118  A    between atoms: _284  and  _285
REMARK  119  A    between atoms: _291  and  _293
REMARK  120  A    between atoms: _293  and  _294
REMARK  121  A    between atoms: _296  and  _298
REMARK  122  A    between atoms: _298  and  _299
REMARK  123  A    between atoms: _298  and  _301
REMARK  124  A    between atoms: _301  and  _302
REMARK  125  A    between atoms: _305  and  _307
REMARK  126  A    between atoms: _307  and  _308
REMARK  127  A    between atoms: _307  and  _310
REMARK  128  A    between atoms: _310  and  _311
REMARK  129  A    between atoms: _314  and  _316
REMARK  130  A    between atoms: _316  and  _317
REMARK  131  A    between atoms: _316  and  _319
REMARK  132  A    between atoms: _319  and  _320
REMARK  133  A    between atoms: _325  and  _327
REMARK  134  A    between atoms: _327  and  _328
REMARK  135  A    between atoms: _327  and  _330
REMARK  136  A    between atoms: _330  and  _331
REMARK  137  A    between atoms: _331  and  _333
REMARK  138  A    between atoms: _333  and  ZN_877
REMARK  139  A    between atoms: _334  and  _336
REMARK  140  A    between atoms: _336  and  _337
REMARK  141  A    between atoms: _336  and  _339
REMARK  142  A    between atoms: _339  and  _340
REMARK  143  A    between atoms: _342  and  _344
REMARK  144  A    between atoms: _344  and  _345
REMARK  145  A    between atoms: _344  and  _347
REMARK  146  A    between atoms: _347  and  _348
REMARK  147  A    between atoms: _350  and  _352
REMARK  148  A    between atoms: _352  and  _353
REMARK  149  A    between atoms: _352  and  _355
REMARK  150  A    between atoms: _355  and  _356
REMARK  151  A    between atoms: _359  and  _361
REMARK  152  A    between atoms: _361  and  _362
REMARK  153  A    between atoms: _361  and  _364
REMARK  154  A    between atoms: _364  and  _365
REMARK  155  A    between atoms: _365  and  _366
REMARK  156  A    between atoms: _369  and  _371
REMARK  157  A    between atoms: _371  and  _372
REMARK  158  A    between atoms: _371  and  _374
REMARK  159  A    between atoms: _374  and  _375
REMARK  160  A    between atoms: _380  and  _381
REMARK  161  A    between atoms: _383  and  _385
REMARK  162  A    between atoms: _385  and  _386
REMARK  163  A    between atoms: _385  and  _388
REMARK  164  A    between atoms: _388  and  _389
REMARK  165  A    between atoms: _392  and  _394
REMARK  166  A    between atoms: _394  and  _395
REMARK  167  A    between atoms: _394  and  _397
REMARK  168  A    between atoms: _397  and  _398
REMARK  169  A    between atoms: _401  and  _403
REMARK  170  A    between atoms: _403  and  _404
REMARK  171  A    between atoms: _403  and  _406
REMARK  172  A    between atoms: _406  and  _407
REMARK  173  A    between atoms: _407  and  _408
REMARK  174  A    between atoms: _408  and  _409
REMARK  175  A    between atoms: _418  and  _420
REMARK  176  A    between atoms: _420  and  _421
REMARK  177  A    between atoms: _420  and  _423
REMARK  178  A    between atoms: _426  and  _428
REMARK  179  A    between atoms: _428  and  _429
REMARK  180  A    between atoms: _428  and  _431
REMARK  181  A    between atoms: _431  and  _432
REMARK  182  A    between atoms: _435  and  _437
REMARK  183  A    between atoms: _437  and  _438
REMARK  184  A    between atoms: _437  and  _440
REMARK  185  A    between atoms: _440  and  _441
REMARK  186  A    between atoms: _451  and  _453
REMARK  187  A    between atoms: _453  and  _454
REMARK  188  A    between atoms: _453  and  _456
REMARK  189  A    between atoms: _456  and  _457
REMARK  190  A    between atoms: _457  and  _458
REMARK  191  A    between atoms: _458  and  _459
REMARK  192  A    between atoms: _459  and  _460
REMARK  193  A    between atoms: _464  and  _466
REMARK  194  A    between atoms: _466  and  _467
REMARK  195  A    between atoms: _466  and  _469
REMARK  196  A    between atoms: _469  and  _470
REMARK  197  A    between atoms: _473  and  _474
REMARK  198  A    between atoms: _479  and  _481
REMARK  199  A    between atoms: _481  and  _482
REMARK  200  A    between atoms: _481  and  _484
REMARK  201  A    between atoms: _484  and  _485
REMARK  202  A    between atoms: _485  and  _486
REMARK  203  A    between atoms: _486  and  _487
REMARK  204  A    between atoms: _496  and  _498
REMARK  205  A    between atoms: _498  and  _499
REMARK  206  A    between atoms: _498  and  _501
REMARK  207  A    between atoms: _501  and  _502
REMARK  208  A    between atoms: _505  and  _507
REMARK  209  A    between atoms: _507  and  _508
REMARK  210  A    between atoms: _507  and  _510
REMARK  211  A    between atoms: _510  and  _511
REMARK  212  A    between atoms: _513  and  _515
REMARK  213  A    between atoms: _515  and  _516
REMARK  214  A    between atoms: _515  and  _518
REMARK  215  A    between atoms: _518  and  _519
REMARK  216  A    between atoms: _519  and  _520
REMARK  217  A    between atoms: _520  and  _521
REMARK  218  A    between atoms: _521  and  _522
REMARK  219  A    between atoms: _526  and  _528
REMARK  220  A    between atoms: _528  and  _529
REMARK  221  A    between atoms: _528  and  _531
REMARK  222  A    between atoms: _531  and  _532
REMARK  223  A    between atoms: _535  and  _537
REMARK  224  A    between atoms: _537  and  _538
REMARK  225  A    between atoms: _540  and  _542
REMARK  226  A    between atoms: _542  and  _543
REMARK  227  A    between atoms: _542  and  _545
REMARK  228  A    between atoms: _545  and  _546
REMARK  229  A    between atoms: _548  and  _550
REMARK  230  A    between atoms: _550  and  _551
REMARK  231  A    between atoms: _553  and  _555
REMARK  232  A    between atoms: _555  and  _556
REMARK  233  A    between atoms: _555  and  _558
REMARK  234  A    between atoms: _558  and  _559
REMARK  235  A    between atoms: _564  and  _566
REMARK  236  A    between atoms: _566  and  _567
REMARK  237  A    between atoms: _566  and  _569
REMARK  238  A    between atoms: _569  and  _570
REMARK  239  A    between atoms: _573  and  _575
REMARK  240  A    between atoms: _575  and  _576
REMARK  241  A    between atoms: _575  and  _578
REMARK  242  A    between atoms: _578  and  _579
REMARK  243  A    between atoms: _585  and  _587
REMARK  244  A    between atoms: _587  and  _588
REMARK  245  A    between atoms: _587  and  _590
REMARK  246  A    between atoms: _590  and  _591
REMARK  247  A    between atoms: _591  and  _592
REMARK  248  A    between atoms: _595  and  _597
REMARK  249  A    between atoms: _597  and  _598
REMARK  250  A    between atoms: _597  and  _600
REMARK  251  A    between atoms: _600  and  _601
REMARK  252  A    between atoms: _601  and  _602
REMARK  253  A    between atoms: _602  and  _603
REMARK  254  A    between atoms: _612  and  _614
REMARK  255  A    between atoms: _614  and  _615
REMARK  256  A    between atoms: _614  and  _617
REMARK  257  A    between atoms: _617  and  _618
REMARK  258  A    between atoms: _618  and  _619
REMARK  259  A    between atoms: _619  and  _620
REMARK  260  A    between atoms: _629  and  _631
REMARK  261  A    between atoms: _631  and  _632
REMARK  262  A    between atoms: _631  and  _634
REMARK  263  A    between atoms: _634  and  _635
REMARK  264  A    between atoms: _640  and  _641
REMARK  265  A    between atoms: _643  and  _645
REMARK  266  A    between atoms: _645  and  _646
REMARK  267  A    between atoms: _645  and  _648
REMARK  268  A    between atoms: _648  and  _649
REMARK  269  A    between atoms: _652  and  _654
REMARK  270  A    between atoms: _654  and  _655
REMARK  271  A    between atoms: _654  and  _657
REMARK  272  A    between atoms: _657  and  _658
REMARK  273  A    between atoms: _658  and  _659
REMARK  274  A    between atoms: _659  and  _660
REMARK  275  A    between atoms: _660  and  _661
REMARK  276  A    between atoms: _665  and  _667
REMARK  277  A    between atoms: _667  and  _668
REMARK  278  A    between atoms: _667  and  _670
REMARK  279  A    between atoms: _670  and  _671
REMARK  280  A    between atoms: _676  and  _678
REMARK  281  A    between atoms: _678  and  _679
REMARK  282  A    between atoms: _678  and  _681
REMARK  283  A    between atoms: _681  and  _682
REMARK  284  A    between atoms: _692  and  _694
REMARK  285  A    between atoms: _694  and  _695
REMARK  286  A    between atoms: _694  and  _697
REMARK  287  A    between atoms: _697  and  _698
REMARK  288  A    between atoms: _698  and  _699
REMARK  289  A    between atoms: _702  and  _704
REMARK  290  A    between atoms: _704  and  _705
REMARK  291  A    between atoms: _704  and  _707
REMARK  292  A    between atoms: _707  and  _708
REMARK  293  A    between atoms: _711  and  _713
REMARK  294  A    between atoms: _713  and  _714
REMARK  295  A    between atoms: _713  and  _716
REMARK  296  A    between atoms: _716  and  _717
REMARK  297  A    between atoms: _722  and  _724
REMARK  298  A    between atoms: _724  and  _725
REMARK  299  A    between atoms: _724  and  _727
REMARK  300  A    between atoms: _727  and  _728
REMARK  301  A    between atoms: _734  and  _736
REMARK  302  A    between atoms: _736  and  _737
REMARK  303  A    between atoms: _736  and  _739
REMARK  304  A    between atoms: _739  and  _740
REMARK  305  A    between atoms: _742  and  _744
REMARK  306  A    between atoms: _744  and  _745
REMARK  307  A    between atoms: _747  and  _749
REMARK  308  A    between atoms: _749  and  _750
REMARK  309  A    between atoms: _749  and  _752
REMARK  310  A    between atoms: _752  and  _753
REMARK  311  A    between atoms: _758  and  _759
REMARK  312  A    between atoms: _761  and  _763
REMARK  313  A    between atoms: _763  and  _764
REMARK  314  A    between atoms: _763  and  _766
REMARK  315  A    between atoms: _766  and  _767
REMARK  316  A    between atoms: _772  and  _773
REMARK  317  A    between atoms: _775  and  _777
REMARK  318  A    between atoms: _777  and  _778
REMARK  319  A    between atoms: _777  and  _780
REMARK  320  A    between atoms: _780  and  _781
REMARK  321  A    between atoms: _785  and  ZN_876
REMARK  322  A    between atoms: _786  and  _788
REMARK  323  A    between atoms: _788  and  _789
REMARK  324  A    between atoms: _788  and  _791
REMARK  325  A    between atoms: _791  and  _792
REMARK  326  A    between atoms: _792  and  _793
REMARK  327  A    between atoms: _796  and  _798
REMARK  328  A    between atoms: _798  and  _799
REMARK  329  A    between atoms: _798  and  _801
REMARK  330  A    between atoms: _801  and  _802
REMARK  331  A    between atoms: _802  and  _803
REMARK  332  A    between atoms: _803  and  _804
REMARK  333  A    between atoms: _813  and  _815
REMARK  334  A    between atoms: _815  and  _816
REMARK  335  A    between atoms: _815  and  _818
REMARK  336  A    between atoms: _818  and  _819
REMARK  337  A    between atoms: _824  and  _825
REMARK  338  A    between atoms: _827  and  _829
REMARK  339  A    between atoms: _829  and  _830
REMARK  340  A    between atoms: _829  and  _832
REMARK  341  A    between atoms: _832  and  _833
REMARK  342  A    between atoms: _838  and  _840
REMARK  343  A    between atoms: _840  and  _841
REMARK  344  A    between atoms: _840  and  _843
REMARK  345  A    between atoms: _843  and  _844
REMARK  346  A    between atoms: _844  and  _845
REMARK  347  A    between atoms: _845  and  _846
REMARK  348  A    between atoms: _846  and  _847
REMARK  349  A    between atoms: _851  and  _853
REMARK  350  A    between atoms: _853  and  _854
REMARK  351  A    between atoms: _853  and  _856
REMARK  352  A    between atoms: _856  and  _857
REMARK  353  A    between atoms: _862  and  _863
REMARK  354  A    between atoms: _865  and  _867
REMARK  355  A    between atoms: _867  and  _868
REMARK  356  A    between atoms: _871  and  _873
REMARK  357  A    between atoms: _873  and  _874
REMARK                            x       y       z     vdW  Elec       q    Type
REMARK                         _______ _______ _______ _____ _____    ______ ____
ROOT
ATOM      1  O   HOH     1      23.403  56.683  44.795  0.00  0.00    +0.000 OA
ENDROOT
TORSDOF 0
REMARK  Name = ../refined-set-2016/2xei/2xei_pocket.pdb
REMARK  357 active torsions:
REMARK  status: ('A' for Active; 'I' for Inactive)
REMARK    1  A    between atoms: _1  and  _3
REMARK    2  A    between atoms: _3  and  _4
REMARK    3  A    between atoms: _7  and  _9
REMARK    4  A    between atoms: _9  and  _10
REMARK    5  A    between atoms: _9  and  _12
REMARK    6  A    between atoms: _12  and  _13
REMARK    7  A    between atoms: _19  and  _21
REMARK    8  A    between atoms: _21  and  _22
REMARK    9  A    between atoms: _24  and  _26
REMARK   10  A    between atoms: _26  and  _27
REMARK   11  A    between atoms: _26  and  _29
REMARK   12  A    between atoms: _29  and  _30
REMARK   13  A    between atoms: _30  and  _31
REMARK   14  A    between atoms: _31  and  _32
REMARK   15  A    between atoms: _32  and  _33
REMARK   16  A    between atoms: _37  and  _39
REMARK   17  A    between atoms: _39  and  _40
REMARK   18  A    between atoms: _39  and  _42
REMARK   19  A    between atoms: _45  and  _47
REMARK   20  A    between atoms: _47  and  _48
REMARK   21  A    between atoms: _47  and  _50
REMARK   22  A    between atoms: _50  and  _51
REMARK   23  A    between atoms: _57  and  _59
REMARK   24  A    between atoms: _59  and  _60
REMARK   25  A    between atoms: _59  and  _62
REMARK   26  A    between atoms: _62  and  _63
REMARK   27  A    between atoms: _63  and  _64
REMARK   28  A    between atoms: _64  and  _65
REMARK   29  A    between atoms: _74  and  _76
REMARK   30  A    between atoms: _76  and  _77
REMARK   31  A    between atoms: _79  and  _81
REMARK   32  A    between atoms: _81  and  _82
REMARK   33  A    between atoms: _81  and  _84
REMARK   34  A    between atoms: _84  and  _85
REMARK   35  A    between atoms: _90  and  _91
REMARK   36  A    between atoms: _93  and  _95
REMARK   37  A    between atoms: _95  and  _96
REMARK   38  A    between atoms: _95  and  _98
REMARK   39  A    between atoms: _98  and  _99
REMARK   40  A    between atoms: _99  and  _100
REMARK   41  A    between atoms: _105  and  _107
REMARK   42  A    between atoms: _107  and  _108
REMARK   43  A    between atoms: _107  and  _110
REMARK   44  A    between atoms: _110  and  _111
REMARK   45  A    between atoms: _111  and  _112
REMARK   46  A    between atoms: _112  and  _113
REMARK   47  A    between atoms: _122  and  _124
REMARK   48  A    between atoms: _124  and  _125
REMARK   49  A    between atoms: _127  and  _129
REMARK   50  A    between atoms: _129  and  _130
REMARK   51  A    between atoms: _129  and  _132
REMARK   52  A    between atoms: _132  and  _133
REMARK   53  A    between atoms: _138  and  _140
REMARK   54  A    between atoms: _140  and  _141
REMARK   55  A    between atoms: _140  and  _143
REMARK   56  A    between atoms: _143  and  _144
REMARK   57  A    between atoms: _147  and  _149
REMARK   58  A    between atoms: _149  and  _150
REMARK   59  A    between atoms: _149  and  _152
REMARK   60  A    between atoms: _152  and  _153
REMARK   61  A    between atoms: _156  and  _158
REMARK   62  A    between atoms: _158  and  _159
REMARK   63  A    between atoms: _158  and  _161
REMARK   64  A    between atoms: _161  and  _162
REMARK   65  A    between atoms: _167  and  _169
REMARK   66  A    between atoms: _169  and  _170
REMARK   67  A    between atoms: _169  and  _172
REMARK   68  A    between atoms: _172  and  _173
REMARK   69  A    between atoms: _176  and  _178
REMARK   70  A    between atoms: _178  and  _179
REMARK   71  A    between atoms: _178  and  _181
REMARK   72  A    between atoms: _181  and  _182
REMARK   73  A    between atoms: _187  and  _189
REMARK   74  A    between atoms: _189  and  _190
REMARK   75  A    between atoms: _192  and  _194
REMARK   76  A    between atoms: _194  and  _195
REMARK   77  A    between atoms: _194  and  _197
REMARK   78  A    between atoms: _197  and  _198
REMARK   79  A    between atoms: _202  and  ZN_877
REMARK   80  A    between atoms: _203  and  _205
REMARK   81  A    between atoms: _205  and  _206
REMARK   82  A    between atoms: _205  and  _208
REMARK   83  A    between atoms: _208  and  _209
REMARK   84  A    between atoms: _212  and  _214
REMARK   85  A    between atoms: _214  and  _215
REMARK   86  A    between atoms: _214  and  _217
REMARK   87  A    between atoms: _217  and  _218
REMARK   88  A    between atoms: _228  and  _230
REMARK   89  A    between atoms: _230  and  _231
REMARK   90  A    between atoms: _230  and  _233
REMARK   91  A    between atoms: _233  and  _234
REMARK   92  A    between atoms: _237  and  _239
REMARK   93  A    between atoms: _239  and  _240
REMARK   94  A    between atoms: _239  and  _242
REMARK   95  A    between atoms: _242  and  _243
REMARK   96  A    between atoms: _243  and  _244
REMARK   97  A    between atoms: _243  and  _245
REMARK   98  A    between atoms: _244  and  ZN_877
REMARK   99  A    between atoms: _245  and  ZN_876
REMARK  100  A    between atoms: _247  and  _248
REMARK  101  A    between atoms: _253  and  _255
REMARK  102  A    between atoms: _255  and  _256
REMARK  103  A    between atoms: _259  and  _261
REMARK  104  A    between atoms: _261  and  _262
REMARK  105  A    between atoms: _261  and  _264
REMARK  106  A    between atoms: _264  and  _265
REMARK  107  A    between atoms: _265  and  _266
REMARK  108  A    between atoms: _269  and  _271
REMARK  109  A    between atoms: _271  and  _272
REMARK  110  A    between atoms: _271  and  _274
REMARK  111  A    between atoms: _274  and  _275
REMARK  112  A    between atoms: _275  and  _276
REMARK  113  A    between atoms: _276  and  _278
REMARK  114  A    between atoms: _278  and  ZN_876
REMARK  115  A    between atoms: _279  and  _281
REMARK  116  A    between atoms: _281  and  _282
REMARK  117  A    between atoms: _281  and  _284
REMARK  118  A    between atoms: _284  and  _285
REMARK  119  A    between atoms: _291  and  _293
REMARK  120  A    between atoms: _293  and  _294
REMARK  121  A    between atoms: _296  and  _298
REMARK  122  A    between atoms: _298  and  _299
REMARK  123  A    between atoms: _298  and  _301
REMARK  124  A    between atoms: _301  and  _302
REMARK  125  A    between atoms: _305  and  _307
REMARK  126  A    between atoms: _307  and  _308
REMARK  127  A    between atoms: _307  and  _310
REMARK  128  A    between atoms: _310  and  _311
REMARK  129  A    between atoms: _314  and  _316
REMARK  130  A    between atoms: _316  and  _317
REMARK  131  A    between atoms: _316  and  _319
REMARK  132  A    between atoms: _319  and  _320
REMARK  133  A    between atoms: _325  and  _327
REMARK  134  A    between atoms: _327  and  _328
REMARK  135  A    between atoms: _327  and  _330
REMARK  136  A    between atoms: _330  and  _331
REMARK  137  A    between atoms: _331  and  _333
REMARK  138  A    between atoms: _333  and  ZN_877
REMARK  139  A    between atoms: _334  and  _336
REMARK  140  A    between atoms: _336  and  _337
REMARK  141  A    between atoms: _336  and  _339
REMARK  142  A    between atoms: _339  and  _340
REMARK  143  A    between atoms: _342  and  _344
REMARK  144  A    between atoms: _344  and  _345
REMARK  145  A    between atoms: _344  and  _347
REMARK  146  A    between atoms: _347  and  _348
REMARK  147  A    between atoms: _350  and  _352
REMARK  148  A    between atoms: _352  and  _353
REMARK  149  A    between atoms: _352  and  _355
REMARK  150  A    between atoms: _355  and  _356
REMARK  151  A    between atoms: _359  and  _361
REMARK  152  A    between atoms: _361  and  _362
REMARK  153  A    between atoms: _361  and  _364
REMARK  154  A    between atoms: _364  and  _365
REMARK  155  A    between atoms: _365  and  _366
REMARK  156  A    between atoms: _369  and  _371
REMARK  157  A    between atoms: _371  and  _372
REMARK  158  A    between atoms: _371  and  _374
REMARK  159  A    between atoms: _374  and  _375
REMARK  160  A    between atoms: _380  and  _381
REMARK  161  A    between atoms: _383  and  _385
REMARK  162  A    between atoms: _385  and  _386
REMARK  163  A    between atoms: _385  and  _388
REMARK  164  A    between atoms: _388  and  _389
REMARK  165  A    between atoms: _392  and  _394
REMARK  166  A    between atoms: _394  and  _395
REMARK  167  A    between atoms: _394  and  _397
REMARK  168  A    between atoms: _397  and  _398
REMARK  169  A    between atoms: _401  and  _403
REMARK  170  A    between atoms: _403  and  _404
REMARK  171  A    between atoms: _403  and  _406
REMARK  172  A    between atoms: _406  and  _407
REMARK  173  A    between atoms: _407  and  _408
REMARK  174  A    between atoms: _408  and  _409
REMARK  175  A    between atoms: _418  and  _420
REMARK  176  A    between atoms: _420  and  _421
REMARK  177  A    between atoms: _420  and  _423
REMARK  178  A    between atoms: _426  and  _428
REMARK  179  A    between atoms: _428  and  _429
REMARK  180  A    between atoms: _428  and  _431
REMARK  181  A    between atoms: _431  and  _432
REMARK  182  A    between atoms: _435  and  _437
REMARK  183  A    between atoms: _437  and  _438
REMARK  184  A    between atoms: _437  and  _440
REMARK  185  A    between atoms: _440  and  _441
REMARK  186  A    between atoms: _451  and  _453
REMARK  187  A    between atoms: _453  and  _454
REMARK  188  A    between atoms: _453  and  _456
REMARK  189  A    between atoms: _456  and  _457
REMARK  190  A    between atoms: _457  and  _458
REMARK  191  A    between atoms: _458  and  _459
REMARK  192  A    between atoms: _459  and  _460
REMARK  193  A    between atoms: _464  and  _466
REMARK  194  A    between atoms: _466  and  _467
REMARK  195  A    between atoms: _466  and  _469
REMARK  196  A    between atoms: _469  and  _470
REMARK  197  A    between atoms: _473  and  _474
REMARK  198  A    between atoms: _479  and  _481
REMARK  199  A    between atoms: _481  and  _482
REMARK  200  A    between atoms: _481  and  _484
REMARK  201  A    between atoms: _484  and  _485
REMARK  202  A    between atoms: _485  and  _486
REMARK  203  A    between atoms: _486  and  _487
REMARK  204  A    between atoms: _496  and  _498
REMARK  205  A    between atoms: _498  and  _499
REMARK  206  A    between atoms: _498  and  _501
REMARK  207  A    between atoms: _501  and  _502
REMARK  208  A    between atoms: _505  and  _507
REMARK  209  A    between atoms: _507  and  _508
REMARK  210  A    between atoms: _507  and  _510
REMARK  211  A    between atoms: _510  and  _511
REMARK  212  A    between atoms: _513  and  _515
REMARK  213  A    between atoms: _515  and  _516
REMARK  214  A    between atoms: _515  and  _518
REMARK  215  A    between atoms: _518  and  _519
REMARK  216  A    between atoms: _519  and  _520
REMARK  217  A    between atoms: _520  and  _521
REMARK  218  A    between atoms: _521  and  _522
REMARK  219  A    between atoms: _526  and  _528
REMARK  220  A    between atoms: _528  and  _529
REMARK  221  A    between atoms: _528  and  _531
REMARK  222  A    between atoms: _531  and  _532
REMARK  223  A    between atoms: _535  and  _537
REMARK  224  A    between atoms: _537  and  _538
REMARK  225  A    between atoms: _540  and  _542
REMARK  226  A    between atoms: _542  and  _543
REMARK  227  A    between atoms: _542  and  _545
REMARK  228  A    between atoms: _545  and  _546
REMARK  229  A    between atoms: _548  and  _550
REMARK  230  A    between atoms: _550  and  _551
REMARK  231  A    between atoms: _553  and  _555
REMARK  232  A    between atoms: _555  and  _556
REMARK  233  A    between atoms: _555  and  _558
REMARK  234  A    between atoms: _558  and  _559
REMARK  235  A    between atoms: _564  and  _566
REMARK  236  A    between atoms: _566  and  _567
REMARK  237  A    between atoms: _566  and  _569
REMARK  238  A    between atoms: _569  and  _570
REMARK  239  A    between atoms: _573  and  _575
REMARK  240  A    between atoms: _575  and  _576
REMARK  241  A    between atoms: _575  and  _578
REMARK  242  A    between atoms: _578  and  _579
REMARK  243  A    between atoms: _585  and  _587
REMARK  244  A    between atoms: _587  and  _588
REMARK  245  A    between atoms: _587  and  _590
REMARK  246  A    between atoms: _590  and  _591
REMARK  247  A    between atoms: _591  and  _592
REMARK  248  A    between atoms: _595  and  _597
REMARK  249  A    between atoms: _597  and  _598
REMARK  250  A    between atoms: _597  and  _600
REMARK  251  A    between atoms: _600  and  _601
REMARK  252  A    between atoms: _601  and  _602
REMARK  253  A    between atoms: _602  and  _603
REMARK  254  A    between atoms: _612  and  _614
REMARK  255  A    between atoms: _614  and  _615
REMARK  256  A    between atoms: _614  and  _617
REMARK  257  A    between atoms: _617  and  _618
REMARK  258  A    between atoms: _618  and  _619
REMARK  259  A    between atoms: _619  and  _620
REMARK  260  A    between atoms: _629  and  _631
REMARK  261  A    between atoms: _631  and  _632
REMARK  262  A    between atoms: _631  and  _634
REMARK  263  A    between atoms: _634  and  _635
REMARK  264  A    between atoms: _640  and  _641
REMARK  265  A    between atoms: _643  and  _645
REMARK  266  A    between atoms: _645  and  _646
REMARK  267  A    between atoms: _645  and  _648
REMARK  268  A    between atoms: _648  and  _649
REMARK  269  A    between atoms: _652  and  _654
REMARK  270  A    between atoms: _654  and  _655
REMARK  271  A    between atoms: _654  and  _657
REMARK  272  A    between atoms: _657  and  _658
REMARK  273  A    between atoms: _658  and  _659
REMARK  274  A    between atoms: _659  and  _660
REMARK  275  A    between atoms: _660  and  _661
REMARK  276  A    between atoms: _665  and  _667
REMARK  277  A    between atoms: _667  and  _668
REMARK  278  A    between atoms: _667  and  _670
REMARK  279  A    between atoms: _670  and  _671
REMARK  280  A    between atoms: _676  and  _678
REMARK  281  A    between atoms: _678  and  _679
REMARK  282  A    between atoms: _678  and  _681
REMARK  283  A    between atoms: _681  and  _682
REMARK  284  A    between atoms: _692  and  _694
REMARK  285  A    between atoms: _694  and  _695
REMARK  286  A    between atoms: _694  and  _697
REMARK  287  A    between atoms: _697  and  _698
REMARK  288  A    between atoms: _698  and  _699
REMARK  289  A    between atoms: _702  and  _704
REMARK  290  A    between atoms: _704  and  _705
REMARK  291  A    between atoms: _704  and  _707
REMARK  292  A    between atoms: _707  and  _708
REMARK  293  A    between atoms: _711  and  _713
REMARK  294  A    between atoms: _713  and  _714
REMARK  295  A    between atoms: _713  and  _716
REMARK  296  A    between atoms: _716  and  _717
REMARK  297  A    between atoms: _722  and  _724
REMARK  298  A    between atoms: _724  and  _725
REMARK  299  A    between atoms: _724  and  _727
REMARK  300  A    between atoms: _727  and  _728
REMARK  301  A    between atoms: _734  and  _736
REMARK  302  A    between atoms: _736  and  _737
REMARK  303  A    between atoms: _736  and  _739
REMARK  304  A    between atoms: _739  and  _740
REMARK  305  A    between atoms: _742  and  _744
REMARK  306  A    between atoms: _744  and  _745
REMARK  307  A    between atoms: _747  and  _749
REMARK  308  A    between atoms: _749  and  _750
REMARK  309  A    between atoms: _749  and  _752
REMARK  310  A    between atoms: _752  and  _753
REMARK  311  A    between atoms: _758  and  _759
REMARK  312  A    between atoms: _761  and  _763
REMARK  313  A    between atoms: _763  and  _764
REMARK  314  A    between atoms: _763  and  _766
REMARK  315  A    between atoms: _766  and  _767
REMARK  316  A    between atoms: _772  and  _773
REMARK  317  A    between atoms: _775  and  _777
REMARK  318  A    between atoms: _777  and  _778
REMARK  319  A    between atoms: _777  and  _780
REMARK  320  A    between atoms: _780  and  _781
REMARK  321  A    between atoms: _785  and  ZN_876
REMARK  322  A    between atoms: _786  and  _788
REMARK  323  A    between atoms: _788  and  _789
REMARK  324  A    between atoms: _788  and  _791
REMARK  325  A    between atoms: _791  and  _792
REMARK  326  A    between atoms: _792  and  _793
REMARK  327  A    between atoms: _796  and  _798
REMARK  328  A    between atoms: _798  and  _799
REMARK  329  A    between atoms: _798  and  _801
REMARK  330  A    between atoms: _801  and  _802
REMARK  331  A    between atoms: _802  and  _803
REMARK  332  A    between atoms: _803  and  _804
REMARK  333  A    between atoms: _813  and  _815
REMARK  334  A    between atoms: _815  and  _816
REMARK  335  A    between atoms: _815  and  _818
REMARK  336  A    between atoms: _818  and  _819
REMARK  337  A    between atoms: _824  and  _825
REMARK  338  A    between atoms: _827  and  _829
REMARK  339  A    between atoms: _829  and  _830
REMARK  340  A    between atoms: _829  and  _832
REMARK  341  A    between atoms: _832  and  _833
REMARK  342  A    between atoms: _838  and  _840
REMARK  343  A    between atoms: _840  and  _841
REMARK  344  A    between atoms: _840  and  _843
REMARK  345  A    between atoms: _843  and  _844
REMARK  346  A    between atoms: _844  and  _845
REMARK  347  A    between atoms: _845  and  _846
REMARK  348  A    between atoms: _846  and  _847
REMARK  349  A    between atoms: _851  and  _853
REMARK  350  A    between atoms: _853  and  _854
REMARK  351  A    between atoms: _853  and  _856
REMARK  352  A    between atoms: _856  and  _857
REMARK  353  A    between atoms: _862  and  _863
REMARK  354  A    between atoms: _865  and  _867
REMARK  355  A    between atoms: _867  and  _868
REMARK  356  A    between atoms: _871  and  _873
REMARK  357  A    between atoms: _873  and  _874
REMARK                            x       y       z     vdW  Elec       q    Type
REMARK                         _______ _______ _______ _____ _____    ______ ____
ROOT
ATOM      1  O   HOH     1      15.053  41.810  38.639  0.00  0.00    +0.000 OA
ENDROOT
TORSDOF 0
REMARK  Name = ../refined-set-2016/2xei/2xei_pocket.pdb
REMARK  357 active torsions:
REMARK  status: ('A' for Active; 'I' for Inactive)
REMARK    1  A    between atoms: _1  and  _3
REMARK    2  A    between atoms: _3  and  _4
REMARK    3  A    between atoms: _7  and  _9
REMARK    4  A    between atoms: _9  and  _10
REMARK    5  A    between atoms: _9  and  _12
REMARK    6  A    between atoms: _12  and  _13
REMARK    7  A    between atoms: _19  and  _21
REMARK    8  A    between atoms: _21  and  _22
REMARK    9  A    between atoms: _24  and  _26
REMARK   10  A    between atoms: _26  and  _27
REMARK   11  A    between atoms: _26  and  _29
REMARK   12  A    between atoms: _29  and  _30
REMARK   13  A    between atoms: _30  and  _31
REMARK   14  A    between atoms: _31  and  _32
REMARK   15  A    between atoms: _32  and  _33
REMARK   16  A    between atoms: _37  and  _39
REMARK   17  A    between atoms: _39  and  _40
REMARK   18  A    between atoms: _39  and  _42
REMARK   19  A    between atoms: _45  and  _47
REMARK   20  A    between atoms: _47  and  _48
REMARK   21  A    between atoms: _47  and  _50
REMARK   22  A    between atoms: _50  and  _51
REMARK   23  A    between atoms: _57  and  _59
REMARK   24  A    between atoms: _59  and  _60
REMARK   25  A    between atoms: _59  and  _62
REMARK   26  A    between atoms: _62  and  _63
REMARK   27  A    between atoms: _63  and  _64
REMARK   28  A    between atoms: _64  and  _65
REMARK   29  A    between atoms: _74  and  _76
REMARK   30  A    between atoms: _76  and  _77
REMARK   31  A    between atoms: _79  and  _81
REMARK   32  A    between atoms: _81  and  _82
REMARK   33  A    between atoms: _81  and  _84
REMARK   34  A    between atoms: _84  and  _85
REMARK   35  A    between atoms: _90  and  _91
REMARK   36  A    between atoms: _93  and  _95
REMARK   37  A    between atoms: _95  and  _96
REMARK   38  A    between atoms: _95  and  _98
REMARK   39  A    between atoms: _98  and  _99
REMARK   40  A    between atoms: _99  and  _100
REMARK   41  A    between atoms: _105  and  _107
REMARK   42  A    between atoms: _107  and  _108
REMARK   43  A    between atoms: _107  and  _110
REMARK   44  A    between atoms: _110  and  _111
REMARK   45  A    between atoms: _111  and  _112
REMARK   46  A    between atoms: _112  and  _113
REMARK   47  A    between atoms: _122  and  _124
REMARK   48  A    between atoms: _124  and  _125
REMARK   49  A    between atoms: _127  and  _129
REMARK   50  A    between atoms: _129  and  _130
REMARK   51  A    between atoms: _129  and  _132
REMARK   52  A    between atoms: _132  and  _133
REMARK   53  A    between atoms: _138  and  _140
REMARK   54  A    between atoms: _140  and  _141
REMARK   55  A    between atoms: _140  and  _143
REMARK   56  A    between atoms: _143  and  _144
REMARK   57  A    between atoms: _147  and  _149
REMARK   58  A    between atoms: _149  and  _150
REMARK   59  A    between atoms: _149  and  _152
REMARK   60  A    between atoms: _152  and  _153
REMARK   61  A    between atoms: _156  and  _158
REMARK   62  A    between atoms: _158  and  _159
REMARK   63  A    between atoms: _158  and  _161
REMARK   64  A    between atoms: _161  and  _162
REMARK   65  A    between atoms: _167  and  _169
REMARK   66  A    between atoms: _169  and  _170
REMARK   67  A    between atoms: _169  and  _172
REMARK   68  A    between atoms: _172  and  _173
REMARK   69  A    between atoms: _176  and  _178
REMARK   70  A    between atoms: _178  and  _179
REMARK   71  A    between atoms: _178  and  _181
REMARK   72  A    between atoms: _181  and  _182
REMARK   73  A    between atoms: _187  and  _189
REMARK   74  A    between atoms: _189  and  _190
REMARK   75  A    between atoms: _192  and  _194
REMARK   76  A    between atoms: _194  and  _195
REMARK   77  A    between atoms: _194  and  _197
REMARK   78  A    between atoms: _197  and  _198
REMARK   79  A    between atoms: _202  and  ZN_877
REMARK   80  A    between atoms: _203  and  _205
REMARK   81  A    between atoms: _205  and  _206
REMARK   82  A    between atoms: _205  and  _208
REMARK   83  A    between atoms: _208  and  _209
REMARK   84  A    between atoms: _212  and  _214
REMARK   85  A    between atoms: _214  and  _215
REMARK   86  A    between atoms: _214  and  _217
REMARK   87  A    between atoms: _217  and  _218
REMARK   88  A    between atoms: _228  and  _230
REMARK   89  A    between atoms: _230  and  _231
REMARK   90  A    between atoms: _230  and  _233
REMARK   91  A    between atoms: _233  and  _234
REMARK   92  A    between atoms: _237  and  _239
REMARK   93  A    between atoms: _239  and  _240
REMARK   94  A    between atoms: _239  and  _242
REMARK   95  A    between atoms: _242  and  _243
REMARK   96  A    between atoms: _243  and  _244
REMARK   97  A    between atoms: _243  and  _245
REMARK   98  A    between atoms: _244  and  ZN_877
REMARK   99  A    between atoms: _245  and  ZN_876
REMARK  100  A    between atoms: _247  and  _248
REMARK  101  A    between atoms: _253  and  _255
REMARK  102  A    between atoms: _255  and  _256
REMARK  103  A    between atoms: _259  and  _261
REMARK  104  A    between atoms: _261  and  _262
REMARK  105  A    between atoms: _261  and  _264
REMARK  106  A    between atoms: _264  and  _265
REMARK  107  A    between atoms: _265  and  _266
REMARK  108  A    between atoms: _269  and  _271
REMARK  109  A    between atoms: _271  and  _272
REMARK  110  A    between atoms: _271  and  _274
REMARK  111  A    between atoms: _274  and  _275
REMARK  112  A    between atoms: _275  and  _276
REMARK  113  A    between atoms: _276  and  _278
REMARK  114  A    between atoms: _278  and  ZN_876
REMARK  115  A    between atoms: _279  and  _281
REMARK  116  A    between atoms: _281  and  _282
REMARK  117  A    between atoms: _281  and  _284
REMARK  118  A    between atoms: _284  and  _285
REMARK  119  A    between atoms: _291  and  _293
REMARK  120  A    between atoms: _293  and  _294
REMARK  121  A    between atoms: _296  and  _298
REMARK  122  A    between atoms: _298  and  _299
REMARK  123  A    between atoms: _298  and  _301
REMARK  124  A    between atoms: _301  and  _302
REMARK  125  A    between atoms: _305  and  _307
REMARK  126  A    between atoms: _307  and  _308
REMARK  127  A    between atoms: _307  and  _310
REMARK  128  A    between atoms: _310  and  _311
REMARK  129  A    between atoms: _314  and  _316
REMARK  130  A    between atoms: _316  and  _317
REMARK  131  A    between atoms: _316  and  _319
REMARK  132  A    between atoms: _319  and  _320
REMARK  133  A    between atoms: _325  and  _327
REMARK  134  A    between atoms: _327  and  _328
REMARK  135  A    between atoms: _327  and  _330
REMARK  136  A    between atoms: _330  and  _331
REMARK  137  A    between atoms: _331  and  _333
REMARK  138  A    between atoms: _333  and  ZN_877
REMARK  139  A    between atoms: _334  and  _336
REMARK  140  A    between atoms: _336  and  _337
REMARK  141  A    between atoms: _336  and  _339
REMARK  142  A    between atoms: _339  and  _340
REMARK  143  A    between atoms: _342  and  _344
REMARK  144  A    between atoms: _344  and  _345
REMARK  145  A    between atoms: _344  and  _347
REMARK  146  A    between atoms: _347  and  _348
REMARK  147  A    between atoms: _350  and  _352
REMARK  148  A    between atoms: _352  and  _353
REMARK  149  A    between atoms: _352  and  _355
REMARK  150  A    between atoms: _355  and  _356
REMARK  151  A    between atoms: _359  and  _361
REMARK  152  A    between atoms: _361  and  _362
REMARK  153  A    between atoms: _361  and  _364
REMARK  154  A    between atoms: _364  and  _365
REMARK  155  A    between atoms: _365  and  _366
REMARK  156  A    between atoms: _369  and  _371
REMARK  157  A    between atoms: _371  and  _372
REMARK  158  A    between atoms: _371  and  _374
REMARK  159  A    between atoms: _374  and  _375
REMARK  160  A    between atoms: _380  and  _381
REMARK  161  A    between atoms: _383  and  _385
REMARK  162  A    between atoms: _385  and  _386
REMARK  163  A    between atoms: _385  and  _388
REMARK  164  A    between atoms: _388  and  _389
REMARK  165  A    between atoms: _392  and  _394
REMARK  166  A    between atoms: _394  and  _395
REMARK  167  A    between atoms: _394  and  _397
REMARK  168  A    between atoms: _397  and  _398
REMARK  169  A    between atoms: _401  and  _403
REMARK  170  A    between atoms: _403  and  _404
REMARK  171  A    between atoms: _403  and  _406
REMARK  172  A    between atoms: _406  and  _407
REMARK  173  A    between atoms: _407  and  _408
REMARK  174  A    between atoms: _408  and  _409
REMARK  175  A    between atoms: _418  and  _420
REMARK  176  A    between atoms: _420  and  _421
REMARK  177  A    between atoms: _420  and  _423
REMARK  178  A    between atoms: _426  and  _428
REMARK  179  A    between atoms: _428  and  _429
REMARK  180  A    between atoms: _428  and  _431
REMARK  181  A    between atoms: _431  and  _432
REMARK  182  A    between atoms: _435  and  _437
REMARK  183  A    between atoms: _437  and  _438
REMARK  184  A    between atoms: _437  and  _440
REMARK  185  A    between atoms: _440  and  _441
REMARK  186  A    between atoms: _451  and  _453
REMARK  187  A    between atoms: _453  and  _454
REMARK  188  A    between atoms: _453  and  _456
REMARK  189  A    between atoms: _456  and  _457
REMARK  190  A    between atoms: _457  and  _458
REMARK  191  A    between atoms: _458  and  _459
REMARK  192  A    between atoms: _459  and  _460
REMARK  193  A    between atoms: _464  and  _466
REMARK  194  A    between atoms: _466  and  _467
REMARK  195  A    between atoms: _466  and  _469
REMARK  196  A    between atoms: _469  and  _470
REMARK  197  A    between atoms: _473  and  _474
REMARK  198  A    between atoms: _479  and  _481
REMARK  199  A    between atoms: _481  and  _482
REMARK  200  A    between atoms: _481  and  _484
REMARK  201  A    between atoms: _484  and  _485
REMARK  202  A    between atoms: _485  and  _486
REMARK  203  A    between atoms: _486  and  _487
REMARK  204  A    between atoms: _496  and  _498
REMARK  205  A    between atoms: _498  and  _499
REMARK  206  A    between atoms: _498  and  _501
REMARK  207  A    between atoms: _501  and  _502
REMARK  208  A    between atoms: _505  and  _507
REMARK  209  A    between atoms: _507  and  _508
REMARK  210  A    between atoms: _507  and  _510
REMARK  211  A    between atoms: _510  and  _511
REMARK  212  A    between atoms: _513  and  _515
REMARK  213  A    between atoms: _515  and  _516
REMARK  214  A    between atoms: _515  and  _518
REMARK  215  A    between atoms: _518  and  _519
REMARK  216  A    between atoms: _519  and  _520
REMARK  217  A    between atoms: _520  and  _521
REMARK  218  A    between atoms: _521  and  _522
REMARK  219  A    between atoms: _526  and  _528
REMARK  220  A    between atoms: _528  and  _529
REMARK  221  A    between atoms: _528  and  _531
REMARK  222  A    between atoms: _531  and  _532
REMARK  223  A    between atoms: _535  and  _537
REMARK  224  A    between atoms: _537  and  _538
REMARK  225  A    between atoms: _540  and  _542
REMARK  226  A    between atoms: _542  and  _543
REMARK  227  A    between atoms: _542  and  _545
REMARK  228  A    between atoms: _545  and  _546
REMARK  229  A    between atoms: _548  and  _550
REMARK  230  A    between atoms: _550  and  _551
REMARK  231  A    between atoms: _553  and  _555
REMARK  232  A    between atoms: _555  and  _556
REMARK  233  A    between atoms: _555  and  _558
REMARK  234  A    between atoms: _558  and  _559
REMARK  235  A    between atoms: _564  and  _566
REMARK  236  A    between atoms: _566  and  _567
REMARK  237  A    between atoms: _566  and  _569
REMARK  238  A    between atoms: _569  and  _570
REMARK  239  A    between atoms: _573  and  _575
REMARK  240  A    between atoms: _575  and  _576
REMARK  241  A    between atoms: _575  and  _578
REMARK  242  A    between atoms: _578  and  _579
REMARK  243  A    between atoms: _585  and  _587
REMARK  244  A    between atoms: _587  and  _588
REMARK  245  A    between atoms: _587  and  _590
REMARK  246  A    between atoms: _590  and  _591
REMARK  247  A    between atoms: _591  and  _592
REMARK  248  A    between atoms: _595  and  _597
REMARK  249  A    between atoms: _597  and  _598
REMARK  250  A    between atoms: _597  and  _600
REMARK  251  A    between atoms: _600  and  _601
REMARK  252  A    between atoms: _601  and  _602
REMARK  253  A    between atoms: _602  and  _603
REMARK  254  A    between atoms: _612  and  _614
REMARK  255  A    between atoms: _614  and  _615
REMARK  256  A    between atoms: _614  and  _617
REMARK  257  A    between atoms: _617  and  _618
REMARK  258  A    between atoms: _618  and  _619
REMARK  259  A    between atoms: _619  and  _620
REMARK  260  A    between atoms: _629  and  _631
REMARK  261  A    between atoms: _631  and  _632
REMARK  262  A    between atoms: _631  and  _634
REMARK  263  A    between atoms: _634  and  _635
REMARK  264  A    between atoms: _640  and  _641
REMARK  265  A    between atoms: _643  and  _645
REMARK  266  A    between atoms: _645  and  _646
REMARK  267  A    between atoms: _645  and  _648
REMARK  268  A    between atoms: _648  and  _649
REMARK  269  A    between atoms: _652  and  _654
REMARK  270  A    between atoms: _654  and  _655
REMARK  271  A    between atoms: _654  and  _657
REMARK  272  A    between atoms: _657  and  _658
REMARK  273  A    between atoms: _658  and  _659
REMARK  274  A    between atoms: _659  and  _660
REMARK  275  A    between atoms: _660  and  _661
REMARK  276  A    between atoms: _665  and  _667
REMARK  277  A    between atoms: _667  and  _668
REMARK  278  A    between atoms: _667  and  _670
REMARK  279  A    between atoms: _670  and  _671
REMARK  280  A    between atoms: _676  and  _678
REMARK  281  A    between atoms: _678  and  _679
REMARK  282  A    between atoms: _678  and  _681
REMARK  283  A    between atoms: _681  and  _682
REMARK  284  A    between atoms: _692  and  _694
REMARK  285  A    between atoms: _694  and  _695
REMARK  286  A    between atoms: _694  and  _697
REMARK  287  A    between atoms: _697  and  _698
REMARK  288  A    between atoms: _698  and  _699
REMARK  289  A    between atoms: _702  and  _704
REMARK  290  A    between atoms: _704  and  _705
REMARK  291  A    between atoms: _704  and  _707
REMARK  292  A    between atoms: _707  and  _708
REMARK  293  A    between atoms: _711  and  _713
REMARK  294  A    between atoms: _713  and  _714
REMARK  295  A    between atoms: _713  and  _716
REMARK  296  A    between atoms: _716  and  _717
REMARK  297  A    between atoms: _722  and  _724
REMARK  298  A    between atoms: _724  and  _725
REMARK  299  A    between atoms: _724  and  _727
REMARK  300  A    between atoms: _727  and  _728
REMARK  301  A    between atoms: _734  and  _736
REMARK  302  A    between atoms: _736  and  _737
REMARK  303  A    between atoms: _736  and  _739
REMARK  304  A    between atoms: _739  and  _740
REMARK  305  A    between atoms: _742  and  _744
REMARK  306  A    between atoms: _744  and  _745
REMARK  307  A    between atoms: _747  and  _749
REMARK  308  A    between atoms: _749  and  _750
REMARK  309  A    between atoms: _749  and  _752
REMARK  310  A    between atoms: _752  and  _753
REMARK  311  A    between atoms: _758  and  _759
REMARK  312  A    between atoms: _761  and  _763
REMARK  313  A    between atoms: _763  and  _764
REMARK  314  A    between atoms: _763  and  _766
REMARK  315  A    between atoms: _766  and  _767
REMARK  316  A    between atoms: _772  and  _773
REMARK  317  A    between atoms: _775  and  _777
REMARK  318  A    between atoms: _777  and  _778
REMARK  319  A    between atoms: _777  and  _780
REMARK  320  A    between atoms: _780  and  _781
REMARK  321  A    between atoms: _785  and  ZN_876
REMARK  322  A    between atoms: _786  and  _788
REMARK  323  A    between atoms: _788  and  _789
REMARK  324  A    between atoms: _788  and  _791
REMARK  325  A    between atoms: _791  and  _792
REMARK  326  A    between atoms: _792  and  _793
REMARK  327  A    between atoms: _796  and  _798
REMARK  328  A    between atoms: _798  and  _799
REMARK  329  A    between atoms: _798  and  _801
REMARK  330  A    between atoms: _801  and  _802
REMARK  331  A    between atoms: _802  and  _803
REMARK  332  A    between atoms: _803  and  _804
REMARK  333  A    between atoms: _813  and  _815
REMARK  334  A    between atoms: _815  and  _816
REMARK  335  A    between atoms: _815  and  _818
REMARK  336  A    between atoms: _818  and  _819
REMARK  337  A    between atoms: _824  and  _825
REMARK  338  A    between atoms: _827  and  _829
REMARK  339  A    between atoms: _829  and  _830
REMARK  340  A    between atoms: _829  and  _832
REMARK  341  A    between atoms: _832  and  _833
REMARK  342  A    between atoms: _838  and  _840
REMARK  343  A    between atoms: _840  and  _841
REMARK  344  A    between atoms: _840  and  _843
REMARK  345  A    between atoms: _843  and  _844
REMARK  346  A    between atoms: _844  and  _845
REMARK  347  A    between atoms: _845  and  _846
REMARK  348  A    between atoms: _846  and  _847
REMARK  349  A    between atoms: _851  and  _853
REMARK  350  A    between atoms: _853  and  _854
REMARK  351  A    between atoms: _853  and  _856
REMARK  352  A    between atoms: _856  and  _857
REMARK  353  A    between atoms: _862  and  _863
REMARK  354  A    between atoms: _865  and  _867
REMARK  355  A    between atoms: _867  and  _868
REMARK  356  A    between atoms: _871  and  _873
REMARK  357  A    between atoms: _873  and  _874
REMARK                            x       y       z     vdW  Elec       q    Type
REMARK                         _______ _______ _______ _____ _____    ______ ____
ROOT
ATOM      1  O   HOH     1      19.562  49.375  44.879  0.00  0.00    +0.000 OA
ENDROOT
TORSDOF 0
REMARK  Name = ../refined-set-2016/2xei/2xei_pocket.pdb
REMARK  357 active torsions:
REMARK  status: ('A' for Active; 'I' for Inactive)
REMARK    1  A    between atoms: _1  and  _3
REMARK    2  A    between atoms: _3  and  _4
REMARK    3  A    between atoms: _7  and  _9
REMARK    4  A    between atoms: _9  and  _10
REMARK    5  A    between atoms: _9  and  _12
REMARK    6  A    between atoms: _12  and  _13
REMARK    7  A    between atoms: _19  and  _21
REMARK    8  A    between atoms: _21  and  _22
REMARK    9  A    between atoms: _24  and  _26
REMARK   10  A    between atoms: _26  and  _27
REMARK   11  A    between atoms: _26  and  _29
REMARK   12  A    between atoms: _29  and  _30
REMARK   13  A    between atoms: _30  and  _31
REMARK   14  A    between atoms: _31  and  _32
REMARK   15  A    between atoms: _32  and  _33
REMARK   16  A    between atoms: _37  and  _39
REMARK   17  A    between atoms: _39  and  _40
REMARK   18  A    between atoms: _39  and  _42
REMARK   19  A    between atoms: _45  and  _47
REMARK   20  A    between atoms: _47  and  _48
REMARK   21  A    between atoms: _47  and  _50
REMARK   22  A    between atoms: _50  and  _51
REMARK   23  A    between atoms: _57  and  _59
REMARK   24  A    between atoms: _59  and  _60
REMARK   25  A    between atoms: _59  and  _62
REMARK   26  A    between atoms: _62  and  _63
REMARK   27  A    between atoms: _63  and  _64
REMARK   28  A    between atoms: _64  and  _65
REMARK   29  A    between atoms: _74  and  _76
REMARK   30  A    between atoms: _76  and  _77
REMARK   31  A    between atoms: _79  and  _81
REMARK   32  A    between atoms: _81  and  _82
REMARK   33  A    between atoms: _81  and  _84
REMARK   34  A    between atoms: _84  and  _85
REMARK   35  A    between atoms: _90  and  _91
REMARK   36  A    between atoms: _93  and  _95
REMARK   37  A    between atoms: _95  and  _96
REMARK   38  A    between atoms: _95  and  _98
REMARK   39  A    between atoms: _98  and  _99
REMARK   40  A    between atoms: _99  and  _100
REMARK   41  A    between atoms: _105  and  _107
REMARK   42  A    between atoms: _107  and  _108
REMARK   43  A    between atoms: _107  and  _110
REMARK   44  A    between atoms: _110  and  _111
REMARK   45  A    between atoms: _111  and  _112
REMARK   46  A    between atoms: _112  and  _113
REMARK   47  A    between atoms: _122  and  _124
REMARK   48  A    between atoms: _124  and  _125
REMARK   49  A    between atoms: _127  and  _129
REMARK   50  A    between atoms: _129  and  _130
REMARK   51  A    between atoms: _129  and  _132
REMARK   52  A    between atoms: _132  and  _133
REMARK   53  A    between atoms: _138  and  _140
REMARK   54  A    between atoms: _140  and  _141
REMARK   55  A    between atoms: _140  and  _143
REMARK   56  A    between atoms: _143  and  _144
REMARK   57  A    between atoms: _147  and  _149
REMARK   58  A    between atoms: _149  and  _150
REMARK   59  A    between atoms: _149  and  _152
REMARK   60  A    between atoms: _152  and  _153
REMARK   61  A    between atoms: _156  and  _158
REMARK   62  A    between atoms: _158  and  _159
REMARK   63  A    between atoms: _158  and  _161
REMARK   64  A    between atoms: _161  and  _162
REMARK   65  A    between atoms: _167  and  _169
REMARK   66  A    between atoms: _169  and  _170
REMARK   67  A    between atoms: _169  and  _172
REMARK   68  A    between atoms: _172  and  _173
REMARK   69  A    between atoms: _176  and  _178
REMARK   70  A    between atoms: _178  and  _179
REMARK   71  A    between atoms: _178  and  _181
REMARK   72  A    between atoms: _181  and  _182
REMARK   73  A    between atoms: _187  and  _189
REMARK   74  A    between atoms: _189  and  _190
REMARK   75  A    between atoms: _192  and  _194
REMARK   76  A    between atoms: _194  and  _195
REMARK   77  A    between atoms: _194  and  _197
REMARK   78  A    between atoms: _197  and  _198
REMARK   79  A    between atoms: _202  and  ZN_877
REMARK   80  A    between atoms: _203  and  _205
REMARK   81  A    between atoms: _205  and  _206
REMARK   82  A    between atoms: _205  and  _208
REMARK   83  A    between atoms: _208  and  _209
REMARK   84  A    between atoms: _212  and  _214
REMARK   85  A    between atoms: _214  and  _215
REMARK   86  A    between atoms: _214  and  _217
REMARK   87  A    between atoms: _217  and  _218
REMARK   88  A    between atoms: _228  and  _230
REMARK   89  A    between atoms: _230  and  _231
REMARK   90  A    between atoms: _230  and  _233
REMARK   91  A    between atoms: _233  and  _234
REMARK   92  A    between atoms: _237  and  _239
REMARK   93  A    between atoms: _239  and  _240
REMARK   94  A    between atoms: _239  and  _242
REMARK   95  A    between atoms: _242  and  _243
REMARK   96  A    between atoms: _243  and  _244
REMARK   97  A    between atoms: _243  and  _245
REMARK   98  A    between atoms: _244  and  ZN_877
REMARK   99  A    between atoms: _245  and  ZN_876
REMARK  100  A    between atoms: _247  and  _248
REMARK  101  A    between atoms: _253  and  _255
REMARK  102  A    between atoms: _255  and  _256
REMARK  103  A    between atoms: _259  and  _261
REMARK  104  A    between atoms: _261  and  _262
REMARK  105  A    between atoms: _261  and  _264
REMARK  106  A    between atoms: _264  and  _265
REMARK  107  A    between atoms: _265  and  _266
REMARK  108  A    between atoms: _269  and  _271
REMARK  109  A    between atoms: _271  and  _272
REMARK  110  A    between atoms: _271  and  _274
REMARK  111  A    between atoms: _274  and  _275
REMARK  112  A    between atoms: _275  and  _276
REMARK  113  A    between atoms: _276  and  _278
REMARK  114  A    between atoms: _278  and  ZN_876
REMARK  115  A    between atoms: _279  and  _281
REMARK  116  A    between atoms: _281  and  _282
REMARK  117  A    between atoms: _281  and  _284
REMARK  118  A    between atoms: _284  and  _285
REMARK  119  A    between atoms: _291  and  _293
REMARK  120  A    between atoms: _293  and  _294
REMARK  121  A    between atoms: _296  and  _298
REMARK  122  A    between atoms: _298  and  _299
REMARK  123  A    between atoms: _298  and  _301
REMARK  124  A    between atoms: _301  and  _302
REMARK  125  A    between atoms: _305  and  _307
REMARK  126  A    between atoms: _307  and  _308
REMARK  127  A    between atoms: _307  and  _310
REMARK  128  A    between atoms: _310  and  _311
REMARK  129  A    between atoms: _314  and  _316
REMARK  130  A    between atoms: _316  and  _317
REMARK  131  A    between atoms: _316  and  _319
REMARK  132  A    between atoms: _319  and  _320
REMARK  133  A    between atoms: _325  and  _327
REMARK  134  A    between atoms: _327  and  _328
REMARK  135  A    between atoms: _327  and  _330
REMARK  136  A    between atoms: _330  and  _331
REMARK  137  A    between atoms: _331  and  _333
REMARK  138  A    between atoms: _333  and  ZN_877
REMARK  139  A    between atoms: _334  and  _336
REMARK  140  A    between atoms: _336  and  _337
REMARK  141  A    between atoms: _336  and  _339
REMARK  142  A    between atoms: _339  and  _340
REMARK  143  A    between atoms: _342  and  _344
REMARK  144  A    between atoms: _344  and  _345
REMARK  145  A    between atoms: _344  and  _347
REMARK  146  A    between atoms: _347  and  _348
REMARK  147  A    between atoms: _350  and  _352
REMARK  148  A    between atoms: _352  and  _353
REMARK  149  A    between atoms: _352  and  _355
REMARK  150  A    between atoms: _355  and  _356
REMARK  151  A    between atoms: _359  and  _361
REMARK  152  A    between atoms: _361  and  _362
REMARK  153  A    between atoms: _361  and  _364
REMARK  154  A    between atoms: _364  and  _365
REMARK  155  A    between atoms: _365  and  _366
REMARK  156  A    between atoms: _369  and  _371
REMARK  157  A    between atoms: _371  and  _372
REMARK  158  A    between atoms: _371  and  _374
REMARK  159  A    between atoms: _374  and  _375
REMARK  160  A    between atoms: _380  and  _381
REMARK  161  A    between atoms: _383  and  _385
REMARK  162  A    between atoms: _385  and  _386
REMARK  163  A    between atoms: _385  and  _388
REMARK  164  A    between atoms: _388  and  _389
REMARK  165  A    between atoms: _392  and  _394
REMARK  166  A    between atoms: _394  and  _395
REMARK  167  A    between atoms: _394  and  _397
REMARK  168  A    between atoms: _397  and  _398
REMARK  169  A    between atoms: _401  and  _403
REMARK  170  A    between atoms: _403  and  _404
REMARK  171  A    between atoms: _403  and  _406
REMARK  172  A    between atoms: _406  and  _407
REMARK  173  A    between atoms: _407  and  _408
REMARK  174  A    between atoms: _408  and  _409
REMARK  175  A    between atoms: _418  and  _420
REMARK  176  A    between atoms: _420  and  _421
REMARK  177  A    between atoms: _420  and  _423
REMARK  178  A    between atoms: _426  and  _428
REMARK  179  A    between atoms: _428  and  _429
REMARK  180  A    between atoms: _428  and  _431
REMARK  181  A    between atoms: _431  and  _432
REMARK  182  A    between atoms: _435  and  _437
REMARK  183  A    between atoms: _437  and  _438
REMARK  184  A    between atoms: _437  and  _440
REMARK  185  A    between atoms: _440  and  _441
REMARK  186  A    between atoms: _451  and  _453
REMARK  187  A    between atoms: _453  and  _454
REMARK  188  A    between atoms: _453  and  _456
REMARK  189  A    between atoms: _456  and  _457
REMARK  190  A    between atoms: _457  and  _458
REMARK  191  A    between atoms: _458  and  _459
REMARK  192  A    between atoms: _459  and  _460
REMARK  193  A    between atoms: _464  and  _466
REMARK  194  A    between atoms: _466  and  _467
REMARK  195  A    between atoms: _466  and  _469
REMARK  196  A    between atoms: _469  and  _470
REMARK  197  A    between atoms: _473  and  _474
REMARK  198  A    between atoms: _479  and  _481
REMARK  199  A    between atoms: _481  and  _482
REMARK  200  A    between atoms: _481  and  _484
REMARK  201  A    between atoms: _484  and  _485
REMARK  202  A    between atoms: _485  and  _486
REMARK  203  A    between atoms: _486  and  _487
REMARK  204  A    between atoms: _496  and  _498
REMARK  205  A    between atoms: _498  and  _499
REMARK  206  A    between atoms: _498  and  _501
REMARK  207  A    between atoms: _501  and  _502
REMARK  208  A    between atoms: _505  and  _507
REMARK  209  A    between atoms: _507  and  _508
REMARK  210  A    between atoms: _507  and  _510
REMARK  211  A    between atoms: _510  and  _511
REMARK  212  A    between atoms: _513  and  _515
REMARK  213  A    between atoms: _515  and  _516
REMARK  214  A    between atoms: _515  and  _518
REMARK  215  A    between atoms: _518  and  _519
REMARK  216  A    between atoms: _519  and  _520
REMARK  217  A    between atoms: _520  and  _521
REMARK  218  A    between atoms: _521  and  _522
REMARK  219  A    between atoms: _526  and  _528
REMARK  220  A    between atoms: _528  and  _529
REMARK  221  A    between atoms: _528  and  _531
REMARK  222  A    between atoms: _531  and  _532
REMARK  223  A    between atoms: _535  and  _537
REMARK  224  A    between atoms: _537  and  _538
REMARK  225  A    between atoms: _540  and  _542
REMARK  226  A    between atoms: _542  and  _543
REMARK  227  A    between atoms: _542  and  _545
REMARK  228  A    between atoms: _545  and  _546
REMARK  229  A    between atoms: _548  and  _550
REMARK  230  A    between atoms: _550  and  _551
REMARK  231  A    between atoms: _553  and  _555
REMARK  232  A    between atoms: _555  and  _556
REMARK  233  A    between atoms: _555  and  _558
REMARK  234  A    between atoms: _558  and  _559
REMARK  235  A    between atoms: _564  and  _566
REMARK  236  A    between atoms: _566  and  _567
REMARK  237  A    between atoms: _566  and  _569
REMARK  238  A    between atoms: _569  and  _570
REMARK  239  A    between atoms: _573  and  _575
REMARK  240  A    between atoms: _575  and  _576
REMARK  241  A    between atoms: _575  and  _578
REMARK  242  A    between atoms: _578  and  _579
REMARK  243  A    between atoms: _585  and  _587
REMARK  244  A    between atoms: _587  and  _588
REMARK  245  A    between atoms: _587  and  _590
REMARK  246  A    between atoms: _590  and  _591
REMARK  247  A    between atoms: _591  and  _592
REMARK  248  A    between atoms: _595  and  _597
REMARK  249  A    between atoms: _597  and  _598
REMARK  250  A    between atoms: _597  and  _600
REMARK  251  A    between atoms: _600  and  _601
REMARK  252  A    between atoms: _601  and  _602
REMARK  253  A    between atoms: _602  and  _603
REMARK  254  A    between atoms: _612  and  _614
REMARK  255  A    between atoms: _614  and  _615
REMARK  256  A    between atoms: _614  and  _617
REMARK  257  A    between atoms: _617  and  _618
REMARK  258  A    between atoms: _618  and  _619
REMARK  259  A    between atoms: _619  and  _620
REMARK  260  A    between atoms: _629  and  _631
REMARK  261  A    between atoms: _631  and  _632
REMARK  262  A    between atoms: _631  and  _634
REMARK  263  A    between atoms: _634  and  _635
REMARK  264  A    between atoms: _640  and  _641
REMARK  265  A    between atoms: _643  and  _645
REMARK  266  A    between atoms: _645  and  _646
REMARK  267  A    between atoms: _645  and  _648
REMARK  268  A    between atoms: _648  and  _649
REMARK  269  A    between atoms: _652  and  _654
REMARK  270  A    between atoms: _654  and  _655
REMARK  271  A    between atoms: _654  and  _657
REMARK  272  A    between atoms: _657  and  _658
REMARK  273  A    between atoms: _658  and  _659
REMARK  274  A    between atoms: _659  and  _660
REMARK  275  A    between atoms: _660  and  _661
REMARK  276  A    between atoms: _665  and  _667
REMARK  277  A    between atoms: _667  and  _668
REMARK  278  A    between atoms: _667  and  _670
REMARK  279  A    between atoms: _670  and  _671
REMARK  280  A    between atoms: _676  and  _678
REMARK  281  A    between atoms: _678  and  _679
REMARK  282  A    between atoms: _678  and  _681
REMARK  283  A    between atoms: _681  and  _682
REMARK  284  A    between atoms: _692  and  _694
REMARK  285  A    between atoms: _694  and  _695
REMARK  286  A    between atoms: _694  and  _697
REMARK  287  A    between atoms: _697  and  _698
REMARK  288  A    between atoms: _698  and  _699
REMARK  289  A    between atoms: _702  and  _704
REMARK  290  A    between atoms: _704  and  _705
REMARK  291  A    between atoms: _704  and  _707
REMARK  292  A    between atoms: _707  and  _708
REMARK  293  A    between atoms: _711  and  _713
REMARK  294  A    between atoms: _713  and  _714
REMARK  295  A    between atoms: _713  and  _716
REMARK  296  A    between atoms: _716  and  _717
REMARK  297  A    between atoms: _722  and  _724
REMARK  298  A    between atoms: _724  and  _725
REMARK  299  A    between atoms: _724  and  _727
REMARK  300  A    between atoms: _727  and  _728
REMARK  301  A    between atoms: _734  and  _736
REMARK  302  A    between atoms: _736  and  _737
REMARK  303  A    between atoms: _736  and  _739
REMARK  304  A    between atoms: _739  and  _740
REMARK  305  A    between atoms: _742  and  _744
REMARK  306  A    between atoms: _744  and  _745
REMARK  307  A    between atoms: _747  and  _749
REMARK  308  A    between atoms: _749  and  _750
REMARK  309  A    between atoms: _749  and  _752
REMARK  310  A    between atoms: _752  and  _753
REMARK  311  A    between atoms: _758  and  _759
REMARK  312  A    between atoms: _761  and  _763
REMARK  313  A    between atoms: _763  and  _764
REMARK  314  A    between atoms: _763  and  _766
REMARK  315  A    between atoms: _766  and  _767
REMARK  316  A    between atoms: _772  and  _773
REMARK  317  A    between atoms: _775  and  _777
REMARK  318  A    between atoms: _777  and  _778
REMARK  319  A    between atoms: _777  and  _780
REMARK  320  A    between atoms: _780  and  _781
REMARK  321  A    between atoms: _785  and  ZN_876
REMARK  322  A    between atoms: _786  and  _788
REMARK  323  A    between atoms: _788  and  _789
REMARK  324  A    between atoms: _788  and  _791
REMARK  325  A    between atoms: _791  and  _792
REMARK  326  A    between atoms: _792  and  _793
REMARK  327  A    between atoms: _796  and  _798
REMARK  328  A    between atoms: _798  and  _799
REMARK  329  A    between atoms: _798  and  _801
REMARK  330  A    between atoms: _801  and  _802
REMARK  331  A    between atoms: _802  and  _803
REMARK  332  A    between atoms: _803  and  _804
REMARK  333  A    between atoms: _813  and  _815
REMARK  334  A    between atoms: _815  and  _816
REMARK  335  A    between atoms: _815  and  _818
REMARK  336  A    between atoms: _818  and  _819
REMARK  337  A    between atoms: _824  and  _825
REMARK  338  A    between atoms: _827  and  _829
REMARK  339  A    between atoms: _829  and  _830
REMARK  340  A    between atoms: _829  and  _832
REMARK  341  A    between atoms: _832  and  _833
REMARK  342  A    between atoms: _838  and  _840
REMARK  343  A    between atoms: _840  and  _841
REMARK  344  A    between atoms: _840  and  _843
REMARK  345  A    between atoms: _843  and  _844
REMARK  346  A    between atoms: _844  and  _845
REMARK  347  A    between atoms: _845  and  _846
REMARK  348  A    between atoms: _846  and  _847
REMARK  349  A    between atoms: _851  and  _853
REMARK  350  A    between atoms: _853  and  _854
REMARK  351  A    between atoms: _853  and  _856
REMARK  352  A    between atoms: _856  and  _857
REMARK  353  A    between atoms: _862  and  _863
REMARK  354  A    between atoms: _865  and  _867
REMARK  355  A    between atoms: _867  and  _868
REMARK  356  A    between atoms: _871  and  _873
REMARK  357  A    between atoms: _873  and  _874
REMARK                            x       y       z     vdW  Elec       q    Type
REMARK                         _______ _______ _______ _____ _____    ______ ____
ROOT
ATOM      1  O   HOH     1      11.805  47.650  37.236  0.00  0.00    +0.000 OA
ENDROOT
TORSDOF 0
REMARK  Name = ../refined-set-2016/2xei/2xei_pocket.pdb
REMARK  357 active torsions:
REMARK  status: ('A' for Active; 'I' for Inactive)
REMARK    1  A    between atoms: _1  and  _3
REMARK    2  A    between atoms: _3  and  _4
REMARK    3  A    between atoms: _7  and  _9
REMARK    4  A    between atoms: _9  and  _10
REMARK    5  A    between atoms: _9  and  _12
REMARK    6  A    between atoms: _12  and  _13
REMARK    7  A    between atoms: _19  and  _21
REMARK    8  A    between atoms: _21  and  _22
REMARK    9  A    between atoms: _24  and  _26
REMARK   10  A    between atoms: _26  and  _27
REMARK   11  A    between atoms: _26  and  _29
REMARK   12  A    between atoms: _29  and  _30
REMARK   13  A    between atoms: _30  and  _31
REMARK   14  A    between atoms: _31  and  _32
REMARK   15  A    between atoms: _32  and  _33
REMARK   16  A    between atoms: _37  and  _39
REMARK   17  A    between atoms: _39  and  _40
REMARK   18  A    between atoms: _39  and  _42
REMARK   19  A    between atoms: _45  and  _47
REMARK   20  A    between atoms: _47  and  _48
REMARK   21  A    between atoms: _47  and  _50
REMARK   22  A    between atoms: _50  and  _51
REMARK   23  A    between atoms: _57  and  _59
REMARK   24  A    between atoms: _59  and  _60
REMARK   25  A    between atoms: _59  and  _62
REMARK   26  A    between atoms: _62  and  _63
REMARK   27  A    between atoms: _63  and  _64
REMARK   28  A    between atoms: _64  and  _65
REMARK   29  A    between atoms: _74  and  _76
REMARK   30  A    between atoms: _76  and  _77
REMARK   31  A    between atoms: _79  and  _81
REMARK   32  A    between atoms: _81  and  _82
REMARK   33  A    between atoms: _81  and  _84
REMARK   34  A    between atoms: _84  and  _85
REMARK   35  A    between atoms: _90  and  _91
REMARK   36  A    between atoms: _93  and  _95
REMARK   37  A    between atoms: _95  and  _96
REMARK   38  A    between atoms: _95  and  _98
REMARK   39  A    between atoms: _98  and  _99
REMARK   40  A    between atoms: _99  and  _100
REMARK   41  A    between atoms: _105  and  _107
REMARK   42  A    between atoms: _107  and  _108
REMARK   43  A    between atoms: _107  and  _110
REMARK   44  A    between atoms: _110  and  _111
REMARK   45  A    between atoms: _111  and  _112
REMARK   46  A    between atoms: _112  and  _113
REMARK   47  A    between atoms: _122  and  _124
REMARK   48  A    between atoms: _124  and  _125
REMARK   49  A    between atoms: _127  and  _129
REMARK   50  A    between atoms: _129  and  _130
REMARK   51  A    between atoms: _129  and  _132
REMARK   52  A    between atoms: _132  and  _133
REMARK   53  A    between atoms: _138  and  _140
REMARK   54  A    between atoms: _140  and  _141
REMARK   55  A    between atoms: _140  and  _143
REMARK   56  A    between atoms: _143  and  _144
REMARK   57  A    between atoms: _147  and  _149
REMARK   58  A    between atoms: _149  and  _150
REMARK   59  A    between atoms: _149  and  _152
REMARK   60  A    between atoms: _152  and  _153
REMARK   61  A    between atoms: _156  and  _158
REMARK   62  A    between atoms: _158  and  _159
REMARK   63  A    between atoms: _158  and  _161
REMARK   64  A    between atoms: _161  and  _162
REMARK   65  A    between atoms: _167  and  _169
REMARK   66  A    between atoms: _169  and  _170
REMARK   67  A    between atoms: _169  and  _172
REMARK   68  A    between atoms: _172  and  _173
REMARK   69  A    between atoms: _176  and  _178
REMARK   70  A    between atoms: _178  and  _179
REMARK   71  A    between atoms: _178  and  _181
REMARK   72  A    between atoms: _181  and  _182
REMARK   73  A    between atoms: _187  and  _189
REMARK   74  A    between atoms: _189  and  _190
REMARK   75  A    between atoms: _192  and  _194
REMARK   76  A    between atoms: _194  and  _195
REMARK   77  A    between atoms: _194  and  _197
REMARK   78  A    between atoms: _197  and  _198
REMARK   79  A    between atoms: _202  and  ZN_877
REMARK   80  A    between atoms: _203  and  _205
REMARK   81  A    between atoms: _205  and  _206
REMARK   82  A    between atoms: _205  and  _208
REMARK   83  A    between atoms: _208  and  _209
REMARK   84  A    between atoms: _212  and  _214
REMARK   85  A    between atoms: _214  and  _215
REMARK   86  A    between atoms: _214  and  _217
REMARK   87  A    between atoms: _217  and  _218
REMARK   88  A    between atoms: _228  and  _230
REMARK   89  A    between atoms: _230  and  _231
REMARK   90  A    between atoms: _230  and  _233
REMARK   91  A    between atoms: _233  and  _234
REMARK   92  A    between atoms: _237  and  _239
REMARK   93  A    between atoms: _239  and  _240
REMARK   94  A    between atoms: _239  and  _242
REMARK   95  A    between atoms: _242  and  _243
REMARK   96  A    between atoms: _243  and  _244
REMARK   97  A    between atoms: _243  and  _245
REMARK   98  A    between atoms: _244  and  ZN_877
REMARK   99  A    between atoms: _245  and  ZN_876
REMARK  100  A    between atoms: _247  and  _248
REMARK  101  A    between atoms: _253  and  _255
REMARK  102  A    between atoms: _255  and  _256
REMARK  103  A    between atoms: _259  and  _261
REMARK  104  A    between atoms: _261  and  _262
REMARK  105  A    between atoms: _261  and  _264
REMARK  106  A    between atoms: _264  and  _265
REMARK  107  A    between atoms: _265  and  _266
REMARK  108  A    between atoms: _269  and  _271
REMARK  109  A    between atoms: _271  and  _272
REMARK  110  A    between atoms: _271  and  _274
REMARK  111  A    between atoms: _274  and  _275
REMARK  112  A    between atoms: _275  and  _276
REMARK  113  A    between atoms: _276  and  _278
REMARK  114  A    between atoms: _278  and  ZN_876
REMARK  115  A    between atoms: _279  and  _281
REMARK  116  A    between atoms: _281  and  _282
REMARK  117  A    between atoms: _281  and  _284
REMARK  118  A    between atoms: _284  and  _285
REMARK  119  A    between atoms: _291  and  _293
REMARK  120  A    between atoms: _293  and  _294
REMARK  121  A    between atoms: _296  and  _298
REMARK  122  A    between atoms: _298  and  _299
REMARK  123  A    between atoms: _298  and  _301
REMARK  124  A    between atoms: _301  and  _302
REMARK  125  A    between atoms: _305  and  _307
REMARK  126  A    between atoms: _307  and  _308
REMARK  127  A    between atoms: _307  and  _310
REMARK  128  A    between atoms: _310  and  _311
REMARK  129  A    between atoms: _314  and  _316
REMARK  130  A    between atoms: _316  and  _317
REMARK  131  A    between atoms: _316  and  _319
REMARK  132  A    between atoms: _319  and  _320
REMARK  133  A    between atoms: _325  and  _327
REMARK  134  A    between atoms: _327  and  _328
REMARK  135  A    between atoms: _327  and  _330
REMARK  136  A    between atoms: _330  and  _331
REMARK  137  A    between atoms: _331  and  _333
REMARK  138  A    between atoms: _333  and  ZN_877
REMARK  139  A    between atoms: _334  and  _336
REMARK  140  A    between atoms: _336  and  _337
REMARK  141  A    between atoms: _336  and  _339
REMARK  142  A    between atoms: _339  and  _340
REMARK  143  A    between atoms: _342  and  _344
REMARK  144  A    between atoms: _344  and  _345
REMARK  145  A    between atoms: _344  and  _347
REMARK  146  A    between atoms: _347  and  _348
REMARK  147  A    between atoms: _350  and  _352
REMARK  148  A    between atoms: _352  and  _353
REMARK  149  A    between atoms: _352  and  _355
REMARK  150  A    between atoms: _355  and  _356
REMARK  151  A    between atoms: _359  and  _361
REMARK  152  A    between atoms: _361  and  _362
REMARK  153  A    between atoms: _361  and  _364
REMARK  154  A    between atoms: _364  and  _365
REMARK  155  A    between atoms: _365  and  _366
REMARK  156  A    between atoms: _369  and  _371
REMARK  157  A    between atoms: _371  and  _372
REMARK  158  A    between atoms: _371  and  _374
REMARK  159  A    between atoms: _374  and  _375
REMARK  160  A    between atoms: _380  and  _381
REMARK  161  A    between atoms: _383  and  _385
REMARK  162  A    between atoms: _385  and  _386
REMARK  163  A    between atoms: _385  and  _388
REMARK  164  A    between atoms: _388  and  _389
REMARK  165  A    between atoms: _392  and  _394
REMARK  166  A    between atoms: _394  and  _395
REMARK  167  A    between atoms: _394  and  _397
REMARK  168  A    between atoms: _397  and  _398
REMARK  169  A    between atoms: _401  and  _403
REMARK  170  A    between atoms: _403  and  _404
REMARK  171  A    between atoms: _403  and  _406
REMARK  172  A    between atoms: _406  and  _407
REMARK  173  A    between atoms: _407  and  _408
REMARK  174  A    between atoms: _408  and  _409
REMARK  175  A    between atoms: _418  and  _420
REMARK  176  A    between atoms: _420  and  _421
REMARK  177  A    between atoms: _420  and  _423
REMARK  178  A    between atoms: _426  and  _428
REMARK  179  A    between atoms: _428  and  _429
REMARK  180  A    between atoms: _428  and  _431
REMARK  181  A    between atoms: _431  and  _432
REMARK  182  A    between atoms: _435  and  _437
REMARK  183  A    between atoms: _437  and  _438
REMARK  184  A    between atoms: _437  and  _440
REMARK  185  A    between atoms: _440  and  _441
REMARK  186  A    between atoms: _451  and  _453
REMARK  187  A    between atoms: _453  and  _454
REMARK  188  A    between atoms: _453  and  _456
REMARK  189  A    between atoms: _456  and  _457
REMARK  190  A    between atoms: _457  and  _458
REMARK  191  A    between atoms: _458  and  _459
REMARK  192  A    between atoms: _459  and  _460
REMARK  193  A    between atoms: _464  and  _466
REMARK  194  A    between atoms: _466  and  _467
REMARK  195  A    between atoms: _466  and  _469
REMARK  196  A    between atoms: _469  and  _470
REMARK  197  A    between atoms: _473  and  _474
REMARK  198  A    between atoms: _479  and  _481
REMARK  199  A    between atoms: _481  and  _482
REMARK  200  A    between atoms: _481  and  _484
REMARK  201  A    between atoms: _484  and  _485
REMARK  202  A    between atoms: _485  and  _486
REMARK  203  A    between atoms: _486  and  _487
REMARK  204  A    between atoms: _496  and  _498
REMARK  205  A    between atoms: _498  and  _499
REMARK  206  A    between atoms: _498  and  _501
REMARK  207  A    between atoms: _501  and  _502
REMARK  208  A    between atoms: _505  and  _507
REMARK  209  A    between atoms: _507  and  _508
REMARK  210  A    between atoms: _507  and  _510
REMARK  211  A    between atoms: _510  and  _511
REMARK  212  A    between atoms: _513  and  _515
REMARK  213  A    between atoms: _515  and  _516
REMARK  214  A    between atoms: _515  and  _518
REMARK  215  A    between atoms: _518  and  _519
REMARK  216  A    between atoms: _519  and  _520
REMARK  217  A    between atoms: _520  and  _521
REMARK  218  A    between atoms: _521  and  _522
REMARK  219  A    between atoms: _526  and  _528
REMARK  220  A    between atoms: _528  and  _529
REMARK  221  A    between atoms: _528  and  _531
REMARK  222  A    between atoms: _531  and  _532
REMARK  223  A    between atoms: _535  and  _537
REMARK  224  A    between atoms: _537  and  _538
REMARK  225  A    between atoms: _540  and  _542
REMARK  226  A    between atoms: _542  and  _543
REMARK  227  A    between atoms: _542  and  _545
REMARK  228  A    between atoms: _545  and  _546
REMARK  229  A    between atoms: _548  and  _550
REMARK  230  A    between atoms: _550  and  _551
REMARK  231  A    between atoms: _553  and  _555
REMARK  232  A    between atoms: _555  and  _556
REMARK  233  A    between atoms: _555  and  _558
REMARK  234  A    between atoms: _558  and  _559
REMARK  235  A    between atoms: _564  and  _566
REMARK  236  A    between atoms: _566  and  _567
REMARK  237  A    between atoms: _566  and  _569
REMARK  238  A    between atoms: _569  and  _570
REMARK  239  A    between atoms: _573  and  _575
REMARK  240  A    between atoms: _575  and  _576
REMARK  241  A    between atoms: _575  and  _578
REMARK  242  A    between atoms: _578  and  _579
REMARK  243  A    between atoms: _585  and  _587
REMARK  244  A    between atoms: _587  and  _588
REMARK  245  A    between atoms: _587  and  _590
REMARK  246  A    between atoms: _590  and  _591
REMARK  247  A    between atoms: _591  and  _592
REMARK  248  A    between atoms: _595  and  _597
REMARK  249  A    between atoms: _597  and  _598
REMARK  250  A    between atoms: _597  and  _600
REMARK  251  A    between atoms: _600  and  _601
REMARK  252  A    between atoms: _601  and  _602
REMARK  253  A    between atoms: _602  and  _603
REMARK  254  A    between atoms: _612  and  _614
REMARK  255  A    between atoms: _614  and  _615
REMARK  256  A    between atoms: _614  and  _617
REMARK  257  A    between atoms: _617  and  _618
REMARK  258  A    between atoms: _618  and  _619
REMARK  259  A    between atoms: _619  and  _620
REMARK  260  A    between atoms: _629  and  _631
REMARK  261  A    between atoms: _631  and  _632
REMARK  262  A    between atoms: _631  and  _634
REMARK  263  A    between atoms: _634  and  _635
REMARK  264  A    between atoms: _640  and  _641
REMARK  265  A    between atoms: _643  and  _645
REMARK  266  A    between atoms: _645  and  _646
REMARK  267  A    between atoms: _645  and  _648
REMARK  268  A    between atoms: _648  and  _649
REMARK  269  A    between atoms: _652  and  _654
REMARK  270  A    between atoms: _654  and  _655
REMARK  271  A    between atoms: _654  and  _657
REMARK  272  A    between atoms: _657  and  _658
REMARK  273  A    between atoms: _658  and  _659
REMARK  274  A    between atoms: _659  and  _660
REMARK  275  A    between atoms: _660  and  _661
REMARK  276  A    between atoms: _665  and  _667
REMARK  277  A    between atoms: _667  and  _668
REMARK  278  A    between atoms: _667  and  _670
REMARK  279  A    between atoms: _670  and  _671
REMARK  280  A    between atoms: _676  and  _678
REMARK  281  A    between atoms: _678  and  _679
REMARK  282  A    between atoms: _678  and  _681
REMARK  283  A    between atoms: _681  and  _682
REMARK  284  A    between atoms: _692  and  _694
REMARK  285  A    between atoms: _694  and  _695
REMARK  286  A    between atoms: _694  and  _697
REMARK  287  A    between atoms: _697  and  _698
REMARK  288  A    between atoms: _698  and  _699
REMARK  289  A    between atoms: _702  and  _704
REMARK  290  A    between atoms: _704  and  _705
REMARK  291  A    between atoms: _704  and  _707
REMARK  292  A    between atoms: _707  and  _708
REMARK  293  A    between atoms: _711  and  _713
REMARK  294  A    between atoms: _713  and  _714
REMARK  295  A    between atoms: _713  and  _716
REMARK  296  A    between atoms: _716  and  _717
REMARK  297  A    between atoms: _722  and  _724
REMARK  298  A    between atoms: _724  and  _725
REMARK  299  A    between atoms: _724  and  _727
REMARK  300  A    between atoms: _727  and  _728
REMARK  301  A    between atoms: _734  and  _736
REMARK  302  A    between atoms: _736  and  _737
REMARK  303  A    between atoms: _736  and  _739
REMARK  304  A    between atoms: _739  and  _740
REMARK  305  A    between atoms: _742  and  _744
REMARK  306  A    between atoms: _744  and  _745
REMARK  307  A    between atoms: _747  and  _749
REMARK  308  A    between atoms: _749  and  _750
REMARK  309  A    between atoms: _749  and  _752
REMARK  310  A    between atoms: _752  and  _753
REMARK  311  A    between atoms: _758  and  _759
REMARK  312  A    between atoms: _761  and  _763
REMARK  313  A    between atoms: _763  and  _764
REMARK  314  A    between atoms: _763  and  _766
REMARK  315  A    between atoms: _766  and  _767
REMARK  316  A    between atoms: _772  and  _773
REMARK  317  A    between atoms: _775  and  _777
REMARK  318  A    between atoms: _777  and  _778
REMARK  319  A    between atoms: _777  and  _780
REMARK  320  A    between atoms: _780  and  _781
REMARK  321  A    between atoms: _785  and  ZN_876
REMARK  322  A    between atoms: _786  and  _788
REMARK  323  A    between atoms: _788  and  _789
REMARK  324  A    between atoms: _788  and  _791
REMARK  325  A    between atoms: _791  and  _792
REMARK  326  A    between atoms: _792  and  _793
REMARK  327  A    between atoms: _796  and  _798
REMARK  328  A    between atoms: _798  and  _799
REMARK  329  A    between atoms: _798  and  _801
REMARK  330  A    between atoms: _801  and  _802
REMARK  331  A    between atoms: _802  and  _803
REMARK  332  A    between atoms: _803  and  _804
REMARK  333  A    between atoms: _813  and  _815
REMARK  334  A    between atoms: _815  and  _816
REMARK  335  A    between atoms: _815  and  _818
REMARK  336  A    between atoms: _818  and  _819
REMARK  337  A    between atoms: _824  and  _825
REMARK  338  A    between atoms: _827  and  _829
REMARK  339  A    between atoms: _829  and  _830
REMARK  340  A    between atoms: _829  and  _832
REMARK  341  A    between atoms: _832  and  _833
REMARK  342  A    between atoms: _838  and  _840
REMARK  343  A    between atoms: _840  and  _841
REMARK  344  A    between atoms: _840  and  _843
REMARK  345  A    between atoms: _843  and  _844
REMARK  346  A    between atoms: _844  and  _845
REMARK  347  A    between atoms: _845  and  _846
REMARK  348  A    between atoms: _846  and  _847
REMARK  349  A    between atoms: _851  and  _853
REMARK  350  A    between atoms: _853  and  _854
REMARK  351  A    between atoms: _853  and  _856
REMARK  352  A    between atoms: _856  and  _857
REMARK  353  A    between atoms: _862  and  _863
REMARK  354  A    between atoms: _865  and  _867
REMARK  355  A    between atoms: _867  and  _868
REMARK  356  A    between atoms: _871  and  _873
REMARK  357  A    between atoms: _873  and  _874
REMARK                            x       y       z     vdW  Elec       q    Type
REMARK                         _______ _______ _______ _____ _____    ______ ____
ROOT
ATOM      1  O   HOH     1      21.616  42.403  46.454  0.00  0.00    +0.000 OA
ENDROOT
TORSDOF 0
REMARK  Name = ../refined-set-2016/2xei/2xei_pocket.pdb
REMARK  357 active torsions:
REMARK  status: ('A' for Active; 'I' for Inactive)
REMARK    1  A    between atoms: _1  and  _3
REMARK    2  A    between atoms: _3  and  _4
REMARK    3  A    between atoms: _7  and  _9
REMARK    4  A    between atoms: _9  and  _10
REMARK    5  A    between atoms: _9  and  _12
REMARK    6  A    between atoms: _12  and  _13
REMARK    7  A    between atoms: _19  and  _21
REMARK    8  A    between atoms: _21  and  _22
REMARK    9  A    between atoms: _24  and  _26
REMARK   10  A    between atoms: _26  and  _27
REMARK   11  A    between atoms: _26  and  _29
REMARK   12  A    between atoms: _29  and  _30
REMARK   13  A    between atoms: _30  and  _31
REMARK   14  A    between atoms: _31  and  _32
REMARK   15  A    between atoms: _32  and  _33
REMARK   16  A    between atoms: _37  and  _39
REMARK   17  A    between atoms: _39  and  _40
REMARK   18  A    between atoms: _39  and  _42
REMARK   19  A    between atoms: _45  and  _47
REMARK   20  A    between atoms: _47  and  _48
REMARK   21  A    between atoms: _47  and  _50
REMARK   22  A    between atoms: _50  and  _51
REMARK   23  A    between atoms: _57  and  _59
REMARK   24  A    between atoms: _59  and  _60
REMARK   25  A    between atoms: _59  and  _62
REMARK   26  A    between atoms: _62  and  _63
REMARK   27  A    between atoms: _63  and  _64
REMARK   28  A    between atoms: _64  and  _65
REMARK   29  A    between atoms: _74  and  _76
REMARK   30  A    between atoms: _76  and  _77
REMARK   31  A    between atoms: _79  and  _81
REMARK   32  A    between atoms: _81  and  _82
REMARK   33  A    between atoms: _81  and  _84
REMARK   34  A    between atoms: _84  and  _85
REMARK   35  A    between atoms: _90  and  _91
REMARK   36  A    between atoms: _93  and  _95
REMARK   37  A    between atoms: _95  and  _96
REMARK   38  A    between atoms: _95  and  _98
REMARK   39  A    between atoms: _98  and  _99
REMARK   40  A    between atoms: _99  and  _100
REMARK   41  A    between atoms: _105  and  _107
REMARK   42  A    between atoms: _107  and  _108
REMARK   43  A    between atoms: _107  and  _110
REMARK   44  A    between atoms: _110  and  _111
REMARK   45  A    between atoms: _111  and  _112
REMARK   46  A    between atoms: _112  and  _113
REMARK   47  A    between atoms: _122  and  _124
REMARK   48  A    between atoms: _124  and  _125
REMARK   49  A    between atoms: _127  and  _129
REMARK   50  A    between atoms: _129  and  _130
REMARK   51  A    between atoms: _129  and  _132
REMARK   52  A    between atoms: _132  and  _133
REMARK   53  A    between atoms: _138  and  _140
REMARK   54  A    between atoms: _140  and  _141
REMARK   55  A    between atoms: _140  and  _143
REMARK   56  A    between atoms: _143  and  _144
REMARK   57  A    between atoms: _147  and  _149
REMARK   58  A    between atoms: _149  and  _150
REMARK   59  A    between atoms: _149  and  _152
REMARK   60  A    between atoms: _152  and  _153
REMARK   61  A    between atoms: _156  and  _158
REMARK   62  A    between atoms: _158  and  _159
REMARK   63  A    between atoms: _158  and  _161
REMARK   64  A    between atoms: _161  and  _162
REMARK   65  A    between atoms: _167  and  _169
REMARK   66  A    between atoms: _169  and  _170
REMARK   67  A    between atoms: _169  and  _172
REMARK   68  A    between atoms: _172  and  _173
REMARK   69  A    between atoms: _176  and  _178
REMARK   70  A    between atoms: _178  and  _179
REMARK   71  A    between atoms: _178  and  _181
REMARK   72  A    between atoms: _181  and  _182
REMARK   73  A    between atoms: _187  and  _189
REMARK   74  A    between atoms: _189  and  _190
REMARK   75  A    between atoms: _192  and  _194
REMARK   76  A    between atoms: _194  and  _195
REMARK   77  A    between atoms: _194  and  _197
REMARK   78  A    between atoms: _197  and  _198
REMARK   79  A    between atoms: _202  and  ZN_877
REMARK   80  A    between atoms: _203  and  _205
REMARK   81  A    between atoms: _205  and  _206
REMARK   82  A    between atoms: _205  and  _208
REMARK   83  A    between atoms: _208  and  _209
REMARK   84  A    between atoms: _212  and  _214
REMARK   85  A    between atoms: _214  and  _215
REMARK   86  A    between atoms: _214  and  _217
REMARK   87  A    between atoms: _217  and  _218
REMARK   88  A    between atoms: _228  and  _230
REMARK   89  A    between atoms: _230  and  _231
REMARK   90  A    between atoms: _230  and  _233
REMARK   91  A    between atoms: _233  and  _234
REMARK   92  A    between atoms: _237  and  _239
REMARK   93  A    between atoms: _239  and  _240
REMARK   94  A    between atoms: _239  and  _242
REMARK   95  A    between atoms: _242  and  _243
REMARK   96  A    between atoms: _243  and  _244
REMARK   97  A    between atoms: _243  and  _245
REMARK   98  A    between atoms: _244  and  ZN_877
REMARK   99  A    between atoms: _245  and  ZN_876
REMARK  100  A    between atoms: _247  and  _248
REMARK  101  A    between atoms: _253  and  _255
REMARK  102  A    between atoms: _255  and  _256
REMARK  103  A    between atoms: _259  and  _261
REMARK  104  A    between atoms: _261  and  _262
REMARK  105  A    between atoms: _261  and  _264
REMARK  106  A    between atoms: _264  and  _265
REMARK  107  A    between atoms: _265  and  _266
REMARK  108  A    between atoms: _269  and  _271
REMARK  109  A    between atoms: _271  and  _272
REMARK  110  A    between atoms: _271  and  _274
REMARK  111  A    between atoms: _274  and  _275
REMARK  112  A    between atoms: _275  and  _276
REMARK  113  A    between atoms: _276  and  _278
REMARK  114  A    between atoms: _278  and  ZN_876
REMARK  115  A    between atoms: _279  and  _281
REMARK  116  A    between atoms: _281  and  _282
REMARK  117  A    between atoms: _281  and  _284
REMARK  118  A    between atoms: _284  and  _285
REMARK  119  A    between atoms: _291  and  _293
REMARK  120  A    between atoms: _293  and  _294
REMARK  121  A    between atoms: _296  and  _298
REMARK  122  A    between atoms: _298  and  _299
REMARK  123  A    between atoms: _298  and  _301
REMARK  124  A    between atoms: _301  and  _302
REMARK  125  A    between atoms: _305  and  _307
REMARK  126  A    between atoms: _307  and  _308
REMARK  127  A    between atoms: _307  and  _310
REMARK  128  A    between atoms: _310  and  _311
REMARK  129  A    between atoms: _314  and  _316
REMARK  130  A    between atoms: _316  and  _317
REMARK  131  A    between atoms: _316  and  _319
REMARK  132  A    between atoms: _319  and  _320
REMARK  133  A    between atoms: _325  and  _327
REMARK  134  A    between atoms: _327  and  _328
REMARK  135  A    between atoms: _327  and  _330
REMARK  136  A    between atoms: _330  and  _331
REMARK  137  A    between atoms: _331  and  _333
REMARK  138  A    between atoms: _333  and  ZN_877
REMARK  139  A    between atoms: _334  and  _336
REMARK  140  A    between atoms: _336  and  _337
REMARK  141  A    between atoms: _336  and  _339
REMARK  142  A    between atoms: _339  and  _340
REMARK  143  A    between atoms: _342  and  _344
REMARK  144  A    between atoms: _344  and  _345
REMARK  145  A    between atoms: _344  and  _347
REMARK  146  A    between atoms: _347  and  _348
REMARK  147  A    between atoms: _350  and  _352
REMARK  148  A    between atoms: _352  and  _353
REMARK  149  A    between atoms: _352  and  _355
REMARK  150  A    between atoms: _355  and  _356
REMARK  151  A    between atoms: _359  and  _361
REMARK  152  A    between atoms: _361  and  _362
REMARK  153  A    between atoms: _361  and  _364
REMARK  154  A    between atoms: _364  and  _365
REMARK  155  A    between atoms: _365  and  _366
REMARK  156  A    between atoms: _369  and  _371
REMARK  157  A    between atoms: _371  and  _372
REMARK  158  A    between atoms: _371  and  _374
REMARK  159  A    between atoms: _374  and  _375
REMARK  160  A    between atoms: _380  and  _381
REMARK  161  A    between atoms: _383  and  _385
REMARK  162  A    between atoms: _385  and  _386
REMARK  163  A    between atoms: _385  and  _388
REMARK  164  A    between atoms: _388  and  _389
REMARK  165  A    between atoms: _392  and  _394
REMARK  166  A    between atoms: _394  and  _395
REMARK  167  A    between atoms: _394  and  _397
REMARK  168  A    between atoms: _397  and  _398
REMARK  169  A    between atoms: _401  and  _403
REMARK  170  A    between atoms: _403  and  _404
REMARK  171  A    between atoms: _403  and  _406
REMARK  172  A    between atoms: _406  and  _407
REMARK  173  A    between atoms: _407  and  _408
REMARK  174  A    between atoms: _408  and  _409
REMARK  175  A    between atoms: _418  and  _420
REMARK  176  A    between atoms: _420  and  _421
REMARK  177  A    between atoms: _420  and  _423
REMARK  178  A    between atoms: _426  and  _428
REMARK  179  A    between atoms: _428  and  _429
REMARK  180  A    between atoms: _428  and  _431
REMARK  181  A    between atoms: _431  and  _432
REMARK  182  A    between atoms: _435  and  _437
REMARK  183  A    between atoms: _437  and  _438
REMARK  184  A    between atoms: _437  and  _440
REMARK  185  A    between atoms: _440  and  _441
REMARK  186  A    between atoms: _451  and  _453
REMARK  187  A    between atoms: _453  and  _454
REMARK  188  A    between atoms: _453  and  _456
REMARK  189  A    between atoms: _456  and  _457
REMARK  190  A    between atoms: _457  and  _458
REMARK  191  A    between atoms: _458  and  _459
REMARK  192  A    between atoms: _459  and  _460
REMARK  193  A    between atoms: _464  and  _466
REMARK  194  A    between atoms: _466  and  _467
REMARK  195  A    between atoms: _466  and  _469
REMARK  196  A    between atoms: _469  and  _470
REMARK  197  A    between atoms: _473  and  _474
REMARK  198  A    between atoms: _479  and  _481
REMARK  199  A    between atoms: _481  and  _482
REMARK  200  A    between atoms: _481  and  _484
REMARK  201  A    between atoms: _484  and  _485
REMARK  202  A    between atoms: _485  and  _486
REMARK  203  A    between atoms: _486  and  _487
REMARK  204  A    between atoms: _496  and  _498
REMARK  205  A    between atoms: _498  and  _499
REMARK  206  A    between atoms: _498  and  _501
REMARK  207  A    between atoms: _501  and  _502
REMARK  208  A    between atoms: _505  and  _507
REMARK  209  A    between atoms: _507  and  _508
REMARK  210  A    between atoms: _507  and  _510
REMARK  211  A    between atoms: _510  and  _511
REMARK  212  A    between atoms: _513  and  _515
REMARK  213  A    between atoms: _515  and  _516
REMARK  214  A    between atoms: _515  and  _518
REMARK  215  A    between atoms: _518  and  _519
REMARK  216  A    between atoms: _519  and  _520
REMARK  217  A    between atoms: _520  and  _521
REMARK  218  A    between atoms: _521  and  _522
REMARK  219  A    between atoms: _526  and  _528
REMARK  220  A    between atoms: _528  and  _529
REMARK  221  A    between atoms: _528  and  _531
REMARK  222  A    between atoms: _531  and  _532
REMARK  223  A    between atoms: _535  and  _537
REMARK  224  A    between atoms: _537  and  _538
REMARK  225  A    between atoms: _540  and  _542
REMARK  226  A    between atoms: _542  and  _543
REMARK  227  A    between atoms: _542  and  _545
REMARK  228  A    between atoms: _545  and  _546
REMARK  229  A    between atoms: _548  and  _550
REMARK  230  A    between atoms: _550  and  _551
REMARK  231  A    between atoms: _553  and  _555
REMARK  232  A    between atoms: _555  and  _556
REMARK  233  A    between atoms: _555  and  _558
REMARK  234  A    between atoms: _558  and  _559
REMARK  235  A    between atoms: _564  and  _566
REMARK  236  A    between atoms: _566  and  _567
REMARK  237  A    between atoms: _566  and  _569
REMARK  238  A    between atoms: _569  and  _570
REMARK  239  A    between atoms: _573  and  _575
REMARK  240  A    between atoms: _575  and  _576
REMARK  241  A    between atoms: _575  and  _578
REMARK  242  A    between atoms: _578  and  _579
REMARK  243  A    between atoms: _585  and  _587
REMARK  244  A    between atoms: _587  and  _588
REMARK  245  A    between atoms: _587  and  _590
REMARK  246  A    between atoms: _590  and  _591
REMARK  247  A    between atoms: _591  and  _592
REMARK  248  A    between atoms: _595  and  _597
REMARK  249  A    between atoms: _597  and  _598
REMARK  250  A    between atoms: _597  and  _600
REMARK  251  A    between atoms: _600  and  _601
REMARK  252  A    between atoms: _601  and  _602
REMARK  253  A    between atoms: _602  and  _603
REMARK  254  A    between atoms: _612  and  _614
REMARK  255  A    between atoms: _614  and  _615
REMARK  256  A    between atoms: _614  and  _617
REMARK  257  A    between atoms: _617  and  _618
REMARK  258  A    between atoms: _618  and  _619
REMARK  259  A    between atoms: _619  and  _620
REMARK  260  A    between atoms: _629  and  _631
REMARK  261  A    between atoms: _631  and  _632
REMARK  262  A    between atoms: _631  and  _634
REMARK  263  A    between atoms: _634  and  _635
REMARK  264  A    between atoms: _640  and  _641
REMARK  265  A    between atoms: _643  and  _645
REMARK  266  A    between atoms: _645  and  _646
REMARK  267  A    between atoms: _645  and  _648
REMARK  268  A    between atoms: _648  and  _649
REMARK  269  A    between atoms: _652  and  _654
REMARK  270  A    between atoms: _654  and  _655
REMARK  271  A    between atoms: _654  and  _657
REMARK  272  A    between atoms: _657  and  _658
REMARK  273  A    between atoms: _658  and  _659
REMARK  274  A    between atoms: _659  and  _660
REMARK  275  A    between atoms: _660  and  _661
REMARK  276  A    between atoms: _665  and  _667
REMARK  277  A    between atoms: _667  and  _668
REMARK  278  A    between atoms: _667  and  _670
REMARK  279  A    between atoms: _670  and  _671
REMARK  280  A    between atoms: _676  and  _678
REMARK  281  A    between atoms: _678  and  _679
REMARK  282  A    between atoms: _678  and  _681
REMARK  283  A    between atoms: _681  and  _682
REMARK  284  A    between atoms: _692  and  _694
REMARK  285  A    between atoms: _694  and  _695
REMARK  286  A    between atoms: _694  and  _697
REMARK  287  A    between atoms: _697  and  _698
REMARK  288  A    between atoms: _698  and  _699
REMARK  289  A    between atoms: _702  and  _704
REMARK  290  A    between atoms: _704  and  _705
REMARK  291  A    between atoms: _704  and  _707
REMARK  292  A    between atoms: _707  and  _708
REMARK  293  A    between atoms: _711  and  _713
REMARK  294  A    between atoms: _713  and  _714
REMARK  295  A    between atoms: _713  and  _716
REMARK  296  A    between atoms: _716  and  _717
REMARK  297  A    between atoms: _722  and  _724
REMARK  298  A    between atoms: _724  and  _725
REMARK  299  A    between atoms: _724  and  _727
REMARK  300  A    between atoms: _727  and  _728
REMARK  301  A    between atoms: _734  and  _736
REMARK  302  A    between atoms: _736  and  _737
REMARK  303  A    between atoms: _736  and  _739
REMARK  304  A    between atoms: _739  and  _740
REMARK  305  A    between atoms: _742  and  _744
REMARK  306  A    between atoms: _744  and  _745
REMARK  307  A    between atoms: _747  and  _749
REMARK  308  A    between atoms: _749  and  _750
REMARK  309  A    between atoms: _749  and  _752
REMARK  310  A    between atoms: _752  and  _753
REMARK  311  A    between atoms: _758  and  _759
REMARK  312  A    between atoms: _761  and  _763
REMARK  313  A    between atoms: _763  and  _764
REMARK  314  A    between atoms: _763  and  _766
REMARK  315  A    between atoms: _766  and  _767
REMARK  316  A    between atoms: _772  and  _773
REMARK  317  A    between atoms: _775  and  _777
REMARK  318  A    between atoms: _777  and  _778
REMARK  319  A    between atoms: _777  and  _780
REMARK  320  A    between atoms: _780  and  _781
REMARK  321  A    between atoms: _785  and  ZN_876
REMARK  322  A    between atoms: _786  and  _788
REMARK  323  A    between atoms: _788  and  _789
REMARK  324  A    between atoms: _788  and  _791
REMARK  325  A    between atoms: _791  and  _792
REMARK  326  A    between atoms: _792  and  _793
REMARK  327  A    between atoms: _796  and  _798
REMARK  328  A    between atoms: _798  and  _799
REMARK  329  A    between atoms: _798  and  _801
REMARK  330  A    between atoms: _801  and  _802
REMARK  331  A    between atoms: _802  and  _803
REMARK  332  A    between atoms: _803  and  _804
REMARK  333  A    between atoms: _813  and  _815
REMARK  334  A    between atoms: _815  and  _816
REMARK  335  A    between atoms: _815  and  _818
REMARK  336  A    between atoms: _818  and  _819
REMARK  337  A    between atoms: _824  and  _825
REMARK  338  A    between atoms: _827  and  _829
REMARK  339  A    between atoms: _829  and  _830
REMARK  340  A    between atoms: _829  and  _832
REMARK  341  A    between atoms: _832  and  _833
REMARK  342  A    between atoms: _838  and  _840
REMARK  343  A    between atoms: _840  and  _841
REMARK  344  A    between atoms: _840  and  _843
REMARK  345  A    between atoms: _843  and  _844
REMARK  346  A    between atoms: _844  and  _845
REMARK  347  A    between atoms: _845  and  _846
REMARK  348  A    between atoms: _846  and  _847
REMARK  349  A    between atoms: _851  and  _853
REMARK  350  A    between atoms: _853  and  _854
REMARK  351  A    between atoms: _853  and  _856
REMARK  352  A    between atoms: _856  and  _857
REMARK  353  A    between atoms: _862  and  _863
REMARK  354  A    between atoms: _865  and  _867
REMARK  355  A    between atoms: _867  and  _868
REMARK  356  A    between atoms: _871  and  _873
REMARK  357  A    between atoms: _873  and  _874
REMARK                            x       y       z     vdW  Elec       q    Type
REMARK                         _______ _______ _______ _____ _____    ______ ____
ROOT
ATOM      1  O   HOH     1      25.196  51.445  39.594  0.00  0.00    +0.000 OA
ENDROOT
TORSDOF 0
