REMARK  Name = ../refined-set-2016/3n35/3n35_pocket.pdb
REMARK  103 active torsions:
REMARK  status: ('A' for Active; 'I' for Inactive)
REMARK    1  A    between atoms: _1  and  _3
REMARK    2  A    between atoms: _3  and  _4
REMARK    3  A    between atoms: _3  and  _6
REMARK    4  A    between atoms: _6  and  _7
REMARK    5  A    between atoms: _17  and  _19
REMARK    6  A    between atoms: _19  and  _20
REMARK    7  A    between atoms: _19  and  _22
REMARK    8  A    between atoms: _22  and  _23
REMARK    9  A    between atoms: _27  and  _28
REMARK   10  A    between atoms: _33  and  _35
REMARK   11  A    between atoms: _35  and  _36
REMARK   12  A    between atoms: _35  and  _38
REMARK   13  A    between atoms: _38  and  _39
REMARK   14  A    between atoms: _43  and  _44
REMARK   15  A    between atoms: _49  and  _51
REMARK   16  A    between atoms: _51  and  _52
REMARK   17  A    between atoms: _55  and  _57
REMARK   18  A    between atoms: _57  and  _58
REMARK   19  A    between atoms: _57  and  _60
REMARK   20  A    between atoms: _60  and  _61
REMARK   21  A    between atoms: _64  and  _66
REMARK   22  A    between atoms: _66  and  _67
REMARK   23  A    between atoms: _69  and  _71
REMARK   24  A    between atoms: _71  and  _72
REMARK   25  A    between atoms: _71  and  _74
REMARK   26  A    between atoms: _74  and  _75
REMARK   27  A    between atoms: _75  and  _76
REMARK   28  A    between atoms: _81  and  _83
REMARK   29  A    between atoms: _83  and  _84
REMARK   30  A    between atoms: _86  and  _88
REMARK   31  A    between atoms: _88  and  _89
REMARK   32  A    between atoms: _91  and  _93
REMARK   33  A    between atoms: _93  and  _94
REMARK   34  A    between atoms: _96  and  _98
REMARK   35  A    between atoms: _98  and  _99
REMARK   36  A    between atoms: _98  and  _101
REMARK   37  A    between atoms: _101  and  _102
REMARK   38  A    between atoms: _107  and  _108
REMARK   39  A    between atoms: _110  and  _112
REMARK   40  A    between atoms: _112  and  _113
REMARK   41  A    between atoms: _112  and  _115
REMARK   42  A    between atoms: _115  and  _116
REMARK   43  A    between atoms: _119  and  _121
REMARK   44  A    between atoms: _121  and  _122
REMARK   45  A    between atoms: _124  and  _126
REMARK   46  A    between atoms: _126  and  _127
REMARK   47  A    between atoms: _126  and  _129
REMARK   48  A    between atoms: _129  and  _130
REMARK   49  A    between atoms: _135  and  _137
REMARK   50  A    between atoms: _137  and  _138
REMARK   51  A    between atoms: _137  and  _140
REMARK   52  A    between atoms: _140  and  _141
REMARK   53  A    between atoms: _146  and  _148
REMARK   54  A    between atoms: _148  and  _149
REMARK   55  A    between atoms: _148  and  _151
REMARK   56  A    between atoms: _151  and  _152
REMARK   57  A    between atoms: _154  and  _156
REMARK   58  A    between atoms: _156  and  _157
REMARK   59  A    between atoms: _156  and  _159
REMARK   60  A    between atoms: _159  and  _160
REMARK   61  A    between atoms: _163  and  _165
REMARK   62  A    between atoms: _165  and  _166
REMARK   63  A    between atoms: _165  and  _168
REMARK   64  A    between atoms: _168  and  _169
REMARK   65  A    between atoms: _177  and  _180
REMARK   66  A    between atoms: _180  and  _181
REMARK   67  A    between atoms: _185  and  _188
REMARK   68  A    between atoms: _188  and  _189
REMARK   69  A    between atoms: _196  and  _199
REMARK   70  A    between atoms: _199  and  _200
REMARK   71  A    between atoms: _200  and  _201
REMARK   72  A    between atoms: _208  and  _211
REMARK   73  A    between atoms: _211  and  _212
REMARK   74  A    between atoms: _224  and  _225
REMARK   75  A    between atoms: _231  and  _233
REMARK   76  A    between atoms: _233  and  _234
REMARK   77  A    between atoms: _237  and  _239
REMARK   78  A    between atoms: _239  and  _240
REMARK   79  A    between atoms: _239  and  _242
REMARK   80  A    between atoms: _242  and  _243
REMARK   81  A    between atoms: _246  and  _248
REMARK   82  A    between atoms: _248  and  _249
REMARK   83  A    between atoms: _251  and  _253
REMARK   84  A    between atoms: _253  and  _254
REMARK   85  A    between atoms: _257  and  _259
REMARK   86  A    between atoms: _259  and  _260
REMARK   87  A    between atoms: _259  and  _262
REMARK   88  A    between atoms: _262  and  _263
REMARK   89  A    between atoms: _263  and  _264
REMARK   90  A    between atoms: _269  and  _271
REMARK   91  A    between atoms: _271  and  _272
REMARK   92  A    between atoms: _271  and  _274
REMARK   93  A    between atoms: _274  and  _275
REMARK   94  A    between atoms: _275  and  _276
REMARK   95  A    between atoms: _276  and  _277
REMARK   96  A    between atoms: _286  and  _288
REMARK   97  A    between atoms: _288  and  _289
REMARK   98  A    between atoms: _288  and  _291
REMARK   99  A    between atoms: _291  and  _292
REMARK  100  A    between atoms: _295  and  _297
REMARK  101  A    between atoms: _297  and  _298
REMARK  102  A    between atoms: _301  and  _303
REMARK  103  A    between atoms: _303  and  _304
REMARK                            x       y       z     vdW  Elec       q    Type
REMARK                         _______ _______ _______ _____ _____    ______ ____
ROOT
ATOM      1  CA  TRP A   1     -30.906 -29.248   1.272  0.00  0.00    +0.149 C 
ENDROOT
BRANCH   1   2
ATOM      2  C   TRP A   1     -31.896 -29.541   2.397  0.00  0.00    +0.239 C 
ATOM      3  O   TRP A   1     -31.495 -29.808   3.528  0.00  0.00    -0.274 OA
ATOM      4  N   ASP A   2     -33.184 -29.463   2.085  0.00  0.00    -0.298 N 
ATOM      5  H   ASP A   2     -33.449 -29.210   1.112  0.00  0.00    +0.150 HD
BRANCH   4   6
ATOM      6  CA  ASP A   2     -34.242 -29.720   3.058  0.00  0.00    +0.148 C 
BRANCH   6   7
ATOM      7  C   ASP A   2     -34.134 -28.786   4.268  0.00  0.00    +0.227 C 
ATOM      8  O   ASP A   2     -34.381 -29.187   5.407  0.00  0.00    -0.286 OA
ENDBRANCH   6   7
BRANCH   6   9
ATOM      9  CB  ASP A   2     -34.187 -31.183   3.510  0.00  0.00    +0.142 C 
BRANCH   9  10
ATOM     10  CG  ASP A   2     -35.493 -31.654   4.107  0.00  0.00    +0.367 C 
ATOM     11  OD2 ASP A   2     -35.463 -32.354   5.141  0.00  0.00    -0.246 OA
ATOM     12  OD1 ASP A   2     -36.552 -31.330   3.532  0.00  0.00    -0.246 OA
ENDBRANCH   9  10
ENDBRANCH   6   9
ENDBRANCH   4   6
ENDBRANCH   1   2
BRANCH   1  13
ATOM     13  N   TRP A   1     -29.597 -29.092   1.878  0.00  0.00    -0.238 NA
ATOM     14  H   TRP A   1     -28.975 -29.919   1.983  0.00  0.00    +0.142 HD
ENDBRANCH   1  13
BRANCH   1  15
ATOM     15  CB  TRP A   1     -30.898 -30.388   0.246  0.00  0.00    +0.054 C 
BRANCH  15  16
ATOM     16  CG  TRP A   1     -30.521 -31.720   0.807  0.00  0.00    -0.002 A 
ATOM     17  CD1 TRP A   1     -29.276 -32.129   1.199  0.00  0.00    +0.068 A 
ATOM     18  NE1 TRP A   1     -29.329 -33.424   1.663  0.00  0.00    -0.352 N 
ATOM     19  HE1 TRP A   1     -28.520 -33.972   2.019  0.00  0.00    +0.166 HD
ATOM     20  CE2 TRP A   1     -30.621 -33.873   1.579  0.00  0.00    +0.056 A 
ATOM     21  CZ2 TRP A   1     -31.170 -35.112   1.926  0.00  0.00    +0.017 A 
ATOM     22  CH2 TRP A   1     -32.519 -35.288   1.728  0.00  0.00    +0.001 A 
ATOM     23  CZ3 TRP A   1     -33.322 -34.263   1.197  0.00  0.00    +0.000 A 
ATOM     24  CE3 TRP A   1     -32.774 -33.028   0.852  0.00  0.00    +0.001 A 
ATOM     25  CD2 TRP A   1     -31.400 -32.823   1.043  0.00  0.00    +0.013 A 
ENDBRANCH  15  16
ENDBRANCH   1  15
TORSDOF 8
REMARK  Name = ../refined-set-2016/3n35/3n35_pocket.pdb
REMARK  103 active torsions:
REMARK  status: ('A' for Active; 'I' for Inactive)
REMARK    1  A    between atoms: _1  and  _3
REMARK    2  A    between atoms: _3  and  _4
REMARK    3  A    between atoms: _3  and  _6
REMARK    4  A    between atoms: _6  and  _7
REMARK    5  A    between atoms: _17  and  _19
REMARK    6  A    between atoms: _19  and  _20
REMARK    7  A    between atoms: _19  and  _22
REMARK    8  A    between atoms: _22  and  _23
REMARK    9  A    between atoms: _27  and  _28
REMARK   10  A    between atoms: _33  and  _35
REMARK   11  A    between atoms: _35  and  _36
REMARK   12  A    between atoms: _35  and  _38
REMARK   13  A    between atoms: _38  and  _39
REMARK   14  A    between atoms: _43  and  _44
REMARK   15  A    between atoms: _49  and  _51
REMARK   16  A    between atoms: _51  and  _52
REMARK   17  A    between atoms: _55  and  _57
REMARK   18  A    between atoms: _57  and  _58
REMARK   19  A    between atoms: _57  and  _60
REMARK   20  A    between atoms: _60  and  _61
REMARK   21  A    between atoms: _64  and  _66
REMARK   22  A    between atoms: _66  and  _67
REMARK   23  A    between atoms: _69  and  _71
REMARK   24  A    between atoms: _71  and  _72
REMARK   25  A    between atoms: _71  and  _74
REMARK   26  A    between atoms: _74  and  _75
REMARK   27  A    between atoms: _75  and  _76
REMARK   28  A    between atoms: _81  and  _83
REMARK   29  A    between atoms: _83  and  _84
REMARK   30  A    between atoms: _86  and  _88
REMARK   31  A    between atoms: _88  and  _89
REMARK   32  A    between atoms: _91  and  _93
REMARK   33  A    between atoms: _93  and  _94
REMARK   34  A    between atoms: _96  and  _98
REMARK   35  A    between atoms: _98  and  _99
REMARK   36  A    between atoms: _98  and  _101
REMARK   37  A    between atoms: _101  and  _102
REMARK   38  A    between atoms: _107  and  _108
REMARK   39  A    between atoms: _110  and  _112
REMARK   40  A    between atoms: _112  and  _113
REMARK   41  A    between atoms: _112  and  _115
REMARK   42  A    between atoms: _115  and  _116
REMARK   43  A    between atoms: _119  and  _121
REMARK   44  A    between atoms: _121  and  _122
REMARK   45  A    between atoms: _124  and  _126
REMARK   46  A    between atoms: _126  and  _127
REMARK   47  A    between atoms: _126  and  _129
REMARK   48  A    between atoms: _129  and  _130
REMARK   49  A    between atoms: _135  and  _137
REMARK   50  A    between atoms: _137  and  _138
REMARK   51  A    between atoms: _137  and  _140
REMARK   52  A    between atoms: _140  and  _141
REMARK   53  A    between atoms: _146  and  _148
REMARK   54  A    between atoms: _148  and  _149
REMARK   55  A    between atoms: _148  and  _151
REMARK   56  A    between atoms: _151  and  _152
REMARK   57  A    between atoms: _154  and  _156
REMARK   58  A    between atoms: _156  and  _157
REMARK   59  A    between atoms: _156  and  _159
REMARK   60  A    between atoms: _159  and  _160
REMARK   61  A    between atoms: _163  and  _165
REMARK   62  A    between atoms: _165  and  _166
REMARK   63  A    between atoms: _165  and  _168
REMARK   64  A    between atoms: _168  and  _169
REMARK   65  A    between atoms: _177  and  _180
REMARK   66  A    between atoms: _180  and  _181
REMARK   67  A    between atoms: _185  and  _188
REMARK   68  A    between atoms: _188  and  _189
REMARK   69  A    between atoms: _196  and  _199
REMARK   70  A    between atoms: _199  and  _200
REMARK   71  A    between atoms: _200  and  _201
REMARK   72  A    between atoms: _208  and  _211
REMARK   73  A    between atoms: _211  and  _212
REMARK   74  A    between atoms: _224  and  _225
REMARK   75  A    between atoms: _231  and  _233
REMARK   76  A    between atoms: _233  and  _234
REMARK   77  A    between atoms: _237  and  _239
REMARK   78  A    between atoms: _239  and  _240
REMARK   79  A    between atoms: _239  and  _242
REMARK   80  A    between atoms: _242  and  _243
REMARK   81  A    between atoms: _246  and  _248
REMARK   82  A    between atoms: _248  and  _249
REMARK   83  A    between atoms: _251  and  _253
REMARK   84  A    between atoms: _253  and  _254
REMARK   85  A    between atoms: _257  and  _259
REMARK   86  A    between atoms: _259  and  _260
REMARK   87  A    between atoms: _259  and  _262
REMARK   88  A    between atoms: _262  and  _263
REMARK   89  A    between atoms: _263  and  _264
REMARK   90  A    between atoms: _269  and  _271
REMARK   91  A    between atoms: _271  and  _272
REMARK   92  A    between atoms: _271  and  _274
REMARK   93  A    between atoms: _274  and  _275
REMARK   94  A    between atoms: _275  and  _276
REMARK   95  A    between atoms: _276  and  _277
REMARK   96  A    between atoms: _286  and  _288
REMARK   97  A    between atoms: _288  and  _289
REMARK   98  A    between atoms: _288  and  _291
REMARK   99  A    between atoms: _291  and  _292
REMARK  100  A    between atoms: _295  and  _297
REMARK  101  A    between atoms: _297  and  _298
REMARK  102  A    between atoms: _301  and  _303
REMARK  103  A    between atoms: _303  and  _304
REMARK                            x       y       z     vdW  Elec       q    Type
REMARK                         _______ _______ _______ _____ _____    ______ ____
ROOT
ATOM      1  C   PRO A   3     -32.674 -25.261  -6.898  0.00  0.00    +0.241 C 
ATOM      2  N   ALA A   4     -32.890 -25.053  -5.601  0.00  0.00    -0.297 N 
ATOM      3  H   ALA A   4     -32.095 -25.155  -4.938  0.00  0.00    +0.150 HD
ATOM      4  O   PRO A   3     -33.560 -25.167  -7.747  0.00  0.00    -0.273 OA
ENDROOT
BRANCH   1   8
ATOM      5  C   LEU A   2     -31.664 -27.577  -8.730  0.00  0.00    +0.244 C 
ATOM      6  O   LEU A   2     -32.121 -28.205  -7.778  0.00  0.00    -0.273 OA
ATOM      7  N   PRO A   3     -31.204 -26.323  -8.597  0.00  0.00    -0.272 N 
ATOM      8  CA  PRO A   3     -31.247 -25.643  -7.298  0.00  0.00    +0.152 C 
ATOM      9  CB  PRO A   3     -30.349 -24.424  -7.520  0.00  0.00    +0.031 C 
ATOM     10  CG  PRO A   3     -30.522 -24.142  -8.981  0.00  0.00    +0.024 C 
ATOM     11  CD  PRO A   3     -30.458 -25.524  -9.582  0.00  0.00    +0.094 C 
BRANCH   5  12
ATOM     12  CA  LEU A   2     -31.587 -28.205 -10.120  0.00  0.00    +0.149 C 
BRANCH  12  15
ATOM     13  C   PRO A   1     -29.793 -29.761  -9.586  0.00  0.00    +0.239 C 
ATOM     14  O   PRO A   1     -29.126 -28.868  -9.057  0.00  0.00    -0.274 OA
ATOM     15  N   LEU A   2     -30.991 -29.539 -10.117  0.00  0.00    -0.297 N 
ATOM     16  H   LEU A   2     -31.515 -30.332 -10.539  0.00  0.00    +0.150 HD
BRANCH  13  21
ATOM     17  N   PRO A   1     -27.830 -31.254  -9.343  0.00  0.00    -0.210 NA
ATOM     18  CD  PRO A   1     -27.593 -32.081  -8.148  0.00  0.00    +0.089 C 
ATOM     19  CG  PRO A   1     -28.934 -32.020  -7.462  0.00  0.00    +0.021 C 
ATOM     20  CB  PRO A   1     -29.882 -32.121  -8.611  0.00  0.00    +0.028 C 
ATOM     21  CA  PRO A   1     -29.260 -31.197  -9.660  0.00  0.00    +0.149 C 
ENDBRANCH  13  21
ENDBRANCH  12  15
BRANCH  12  22
ATOM     22  CB  LEU A   2     -32.992 -28.260 -10.725  0.00  0.00    +0.029 C 
BRANCH  22  23
ATOM     23  CG  LEU A   2     -33.066 -28.703 -12.188  0.00  0.00    +0.002 C 
ATOM     24  CD2 LEU A   2     -34.526 -28.854 -12.601  0.00  0.00    +0.000 C 
ATOM     25  CD1 LEU A   2     -32.347 -27.681 -13.067  0.00  0.00    +0.000 C 
ENDBRANCH  22  23
ENDBRANCH  12  22
ENDBRANCH   5  12
ENDBRANCH   1   8
BRANCH   2  26
ATOM     26  CA  ALA A   4     -34.206 -24.686  -5.074  0.00  0.00    +0.149 C 
ATOM     27  CB  ALA A   4     -35.112 -25.916  -5.036  0.00  0.00    +0.031 C 
BRANCH  26  28
ATOM     28  C   ALA A   4     -33.995 -24.136  -3.663  0.00  0.00    +0.241 C 
ATOM     29  N   ASP A   5     -34.981 -23.452  -3.076  0.00  0.00    -0.297 N 
ATOM     30  H   ASP A   5     -34.804 -23.097  -2.115  0.00  0.00    +0.150 HD
ATOM     31  O   ALA A   4     -32.912 -24.327  -3.104  0.00  0.00    -0.273 OA
BRANCH  29  32
ATOM     32  CA  ASP A   5     -36.289 -23.158  -3.665  0.00  0.00    +0.160 C 
BRANCH  32  33
ATOM     33  C   ASP A   5     -36.537 -21.650  -3.788  0.00  0.00    +0.241 C 
ATOM     34  N   GLY A   6     -35.859 -20.869  -2.948  0.00  0.00    -0.296 N 
ATOM     35  H   GLY A   6     -35.221 -21.300  -2.249  0.00  0.00    +0.150 HD
ATOM     36  O   ASP A   5     -37.347 -21.214  -4.610  0.00  0.00    -0.273 OA
BRANCH  34  37
ATOM     37  CA  GLY A   6     -35.999 -19.424  -2.996  0.00  0.00    +0.163 C 
BRANCH  37  38
ATOM     38  C   GLY A   6     -36.246 -18.758  -1.652  0.00  0.00    +0.229 C 
ATOM     39  O   GLY A   6     -36.230 -19.410  -0.604  0.00  0.00    -0.286 OA
ENDBRANCH  37  38
ENDBRANCH  34  37
ENDBRANCH  32  33
BRANCH  32  40
ATOM     40  CB  ASP A   5     -37.400 -23.772  -2.812  0.00  0.00    +0.143 C 
BRANCH  40  41
ATOM     41  CG  ASP A   5     -37.780 -25.161  -3.271  0.00  0.00    +0.367 C 
ATOM     42  OD2 ASP A   5     -37.473 -26.133  -2.546  0.00  0.00    -0.246 OA
ATOM     43  OD1 ASP A   5     -38.379 -25.276  -4.364  0.00  0.00    -0.246 OA
ENDBRANCH  40  41
ENDBRANCH  32  40
ENDBRANCH  29  32
ENDBRANCH  26  28
ENDBRANCH   2  26
TORSDOF 14
REMARK  Name = ../refined-set-2016/3n35/3n35_pocket.pdb
REMARK  103 active torsions:
REMARK  status: ('A' for Active; 'I' for Inactive)
REMARK    1  A    between atoms: _1  and  _3
REMARK    2  A    between atoms: _3  and  _4
REMARK    3  A    between atoms: _3  and  _6
REMARK    4  A    between atoms: _6  and  _7
REMARK    5  A    between atoms: _17  and  _19
REMARK    6  A    between atoms: _19  and  _20
REMARK    7  A    between atoms: _19  and  _22
REMARK    8  A    between atoms: _22  and  _23
REMARK    9  A    between atoms: _27  and  _28
REMARK   10  A    between atoms: _33  and  _35
REMARK   11  A    between atoms: _35  and  _36
REMARK   12  A    between atoms: _35  and  _38
REMARK   13  A    between atoms: _38  and  _39
REMARK   14  A    between atoms: _43  and  _44
REMARK   15  A    between atoms: _49  and  _51
REMARK   16  A    between atoms: _51  and  _52
REMARK   17  A    between atoms: _55  and  _57
REMARK   18  A    between atoms: _57  and  _58
REMARK   19  A    between atoms: _57  and  _60
REMARK   20  A    between atoms: _60  and  _61
REMARK   21  A    between atoms: _64  and  _66
REMARK   22  A    between atoms: _66  and  _67
REMARK   23  A    between atoms: _69  and  _71
REMARK   24  A    between atoms: _71  and  _72
REMARK   25  A    between atoms: _71  and  _74
REMARK   26  A    between atoms: _74  and  _75
REMARK   27  A    between atoms: _75  and  _76
REMARK   28  A    between atoms: _81  and  _83
REMARK   29  A    between atoms: _83  and  _84
REMARK   30  A    between atoms: _86  and  _88
REMARK   31  A    between atoms: _88  and  _89
REMARK   32  A    between atoms: _91  and  _93
REMARK   33  A    between atoms: _93  and  _94
REMARK   34  A    between atoms: _96  and  _98
REMARK   35  A    between atoms: _98  and  _99
REMARK   36  A    between atoms: _98  and  _101
REMARK   37  A    between atoms: _101  and  _102
REMARK   38  A    between atoms: _107  and  _108
REMARK   39  A    between atoms: _110  and  _112
REMARK   40  A    between atoms: _112  and  _113
REMARK   41  A    between atoms: _112  and  _115
REMARK   42  A    between atoms: _115  and  _116
REMARK   43  A    between atoms: _119  and  _121
REMARK   44  A    between atoms: _121  and  _122
REMARK   45  A    between atoms: _124  and  _126
REMARK   46  A    between atoms: _126  and  _127
REMARK   47  A    between atoms: _126  and  _129
REMARK   48  A    between atoms: _129  and  _130
REMARK   49  A    between atoms: _135  and  _137
REMARK   50  A    between atoms: _137  and  _138
REMARK   51  A    between atoms: _137  and  _140
REMARK   52  A    between atoms: _140  and  _141
REMARK   53  A    between atoms: _146  and  _148
REMARK   54  A    between atoms: _148  and  _149
REMARK   55  A    between atoms: _148  and  _151
REMARK   56  A    between atoms: _151  and  _152
REMARK   57  A    between atoms: _154  and  _156
REMARK   58  A    between atoms: _156  and  _157
REMARK   59  A    between atoms: _156  and  _159
REMARK   60  A    between atoms: _159  and  _160
REMARK   61  A    between atoms: _163  and  _165
REMARK   62  A    between atoms: _165  and  _166
REMARK   63  A    between atoms: _165  and  _168
REMARK   64  A    between atoms: _168  and  _169
REMARK   65  A    between atoms: _177  and  _180
REMARK   66  A    between atoms: _180  and  _181
REMARK   67  A    between atoms: _185  and  _188
REMARK   68  A    between atoms: _188  and  _189
REMARK   69  A    between atoms: _196  and  _199
REMARK   70  A    between atoms: _199  and  _200
REMARK   71  A    between atoms: _200  and  _201
REMARK   72  A    between atoms: _208  and  _211
REMARK   73  A    between atoms: _211  and  _212
REMARK   74  A    between atoms: _224  and  _225
REMARK   75  A    between atoms: _231  and  _233
REMARK   76  A    between atoms: _233  and  _234
REMARK   77  A    between atoms: _237  and  _239
REMARK   78  A    between atoms: _239  and  _240
REMARK   79  A    between atoms: _239  and  _242
REMARK   80  A    between atoms: _242  and  _243
REMARK   81  A    between atoms: _246  and  _248
REMARK   82  A    between atoms: _248  and  _249
REMARK   83  A    between atoms: _251  and  _253
REMARK   84  A    between atoms: _253  and  _254
REMARK   85  A    between atoms: _257  and  _259
REMARK   86  A    between atoms: _259  and  _260
REMARK   87  A    between atoms: _259  and  _262
REMARK   88  A    between atoms: _262  and  _263
REMARK   89  A    between atoms: _263  and  _264
REMARK   90  A    between atoms: _269  and  _271
REMARK   91  A    between atoms: _271  and  _272
REMARK   92  A    between atoms: _271  and  _274
REMARK   93  A    between atoms: _274  and  _275
REMARK   94  A    between atoms: _275  and  _276
REMARK   95  A    between atoms: _276  and  _277
REMARK   96  A    between atoms: _286  and  _288
REMARK   97  A    between atoms: _288  and  _289
REMARK   98  A    between atoms: _288  and  _291
REMARK   99  A    between atoms: _291  and  _292
REMARK  100  A    between atoms: _295  and  _297
REMARK  101  A    between atoms: _297  and  _298
REMARK  102  A    between atoms: _301  and  _303
REMARK  103  A    between atoms: _303  and  _304
REMARK                            x       y       z     vdW  Elec       q    Type
REMARK                         _______ _______ _______ _____ _____    ______ ____
ROOT
ATOM      1  C   GLY A   4     -42.645 -24.044  -2.234  0.00  0.00    +0.243 C 
ATOM      2  N   TYR A   5     -43.009 -24.340  -0.987  0.00  0.00    -0.297 N 
ATOM      3  H   TYR A   5     -42.595 -25.173  -0.522  0.00  0.00    +0.150 HD
ATOM      4  O   GLY A   4     -43.099 -23.077  -2.848  0.00  0.00    -0.273 OA
ENDROOT
BRANCH   2   5
ATOM      5  CA  TYR A   5     -43.976 -23.522  -0.255  0.00  0.00    +0.153 C 
BRANCH   5   6
ATOM      6  C   TYR A   5     -43.289 -22.390   0.504  0.00  0.00    +0.241 C 
ATOM      7  O   TYR A   5     -43.936 -21.585   1.180  0.00  0.00    -0.273 OA
ATOM      8  N   LEU A   6     -41.966 -22.357   0.379  0.00  0.00    -0.297 N 
ATOM      9  H   LEU A   6     -41.511 -23.115  -0.169  0.00  0.00    +0.150 HD
BRANCH   8  10
ATOM     10  CA  LEU A   6     -41.109 -21.326   0.961  0.00  0.00    +0.149 C 
BRANCH  10  11
ATOM     11  C   LEU A   6     -41.255 -21.031   2.447  0.00  0.00    +0.241 C 
ATOM     12  N   GLY A   7     -41.809 -21.982   3.194  0.00  0.00    -0.296 N 
ATOM     13  H   GLY A   7     -42.130 -22.864   2.746  0.00  0.00    +0.150 HD
ATOM     14  O   LEU A   6     -40.864 -19.955   2.906  0.00  0.00    -0.273 OA
BRANCH  12  15
ATOM     15  CA  GLY A   7     -41.972 -21.805   4.624  0.00  0.00    +0.163 C 
BRANCH  15  16
ATOM     16  C   GLY A   7     -43.150 -20.950   5.055  0.00  0.00    +0.229 C 
ATOM     17  O   GLY A   7     -43.277 -20.634   6.241  0.00  0.00    -0.286 OA
ENDBRANCH  15  16
ENDBRANCH  12  15
ENDBRANCH  10  11
BRANCH  10  18
ATOM     18  CB  LEU A   6     -41.282 -20.027   0.162  0.00  0.00    +0.029 C 
BRANCH  18  19
ATOM     19  CG  LEU A   6     -41.049 -20.210  -1.343  0.00  0.00    +0.002 C 
ATOM     20  CD2 LEU A   6     -39.616 -20.675  -1.592  0.00  0.00    +0.000 C 
ATOM     21  CD1 LEU A   6     -41.333 -18.901  -2.073  0.00  0.00    +0.000 C 
ENDBRANCH  18  19
ENDBRANCH  10  18
ENDBRANCH   8  10
ENDBRANCH   5   6
BRANCH   5  22
ATOM     22  CB  TYR A   5     -44.794 -24.405   0.686  0.00  0.00    +0.055 C 
BRANCH  22  23
ATOM     23  CG  TYR A   5     -45.587 -25.445  -0.074  0.00  0.00    -0.020 A 
ATOM     24  CD2 TYR A   5     -45.338 -26.807   0.100  0.00  0.00    -0.001 A 
ATOM     25  CE2 TYR A   5     -46.035 -27.768  -0.640  0.00  0.00    +0.036 A 
ATOM     26  CZ  TYR A   5     -46.988 -27.365  -1.559  0.00  0.00    +0.134 A 
ATOM     27  CE1 TYR A   5     -47.257 -26.016  -1.747  0.00  0.00    +0.036 A 
ATOM     28  CD1 TYR A   5     -46.558 -25.066  -1.005  0.00  0.00    -0.001 A 
BRANCH  26  29
ATOM     29  OH  TYR A   5     -47.658 -28.305  -2.308  0.00  0.00    -0.506 OA
ATOM     30  HH  TYR A   5     -48.299 -27.850  -2.910  0.00  0.00    +0.292 HD
ENDBRANCH  26  29
ENDBRANCH  22  23
ENDBRANCH   5  22
ENDBRANCH   2   5
BRANCH   1  31
ATOM     31  CA  GLY A   4     -41.628 -24.959  -2.900  0.00  0.00    +0.176 C 
BRANCH  31  34
ATOM     32  C   GLY A   3     -40.190 -25.536  -1.034  0.00  0.00    +0.243 C 
ATOM     33  O   GLY A   3     -39.979 -24.354  -0.767  0.00  0.00    -0.273 OA
ATOM     34  N   GLY A   4     -40.976 -25.925  -2.034  0.00  0.00    -0.295 N 
ATOM     35  H   GLY A   4     -41.126 -26.941  -2.199  0.00  0.00    +0.150 HD
BRANCH  32  36
ATOM     36  CA  GLY A   3     -39.557 -26.638  -0.204  0.00  0.00    +0.176 C 
BRANCH  36  39
ATOM     37  C   GLY A   2     -40.775 -26.201   1.834  0.00  0.00    +0.243 C 
ATOM     38  O   GLY A   2     -41.857 -26.319   1.254  0.00  0.00    -0.273 OA
ATOM     39  N   GLY A   3     -39.607 -26.345   1.216  0.00  0.00    -0.295 N 
ATOM     40  H   GLY A   3     -38.723 -26.247   1.754  0.00  0.00    +0.150 HD
BRANCH  37  41
ATOM     41  CA  GLY A   2     -40.723 -25.888   3.319  0.00  0.00    +0.176 C 
BRANCH  41  43
ATOM     42  C   GLN A   1     -42.998 -25.584   4.100  0.00  0.00    +0.238 C 
ATOM     43  N   GLY A   2     -41.917 -26.353   4.002  0.00  0.00    -0.296 N 
ATOM     44  H   GLY A   2     -41.927 -27.304   4.422  0.00  0.00    +0.150 HD
ATOM     45  O   GLN A   1     -43.060 -24.441   3.640  0.00  0.00    -0.274 OA
BRANCH  42  46
ATOM     46  CA  GLN A   1     -44.184 -26.202   4.830  0.00  0.00    +0.145 C 
BRANCH  46  47
ATOM     47  N   GLN A   1     -44.964 -25.207   5.561  0.00  0.00    -0.238 NA
ATOM     48  H   GLN A   1     -45.898 -24.920   5.205  0.00  0.00    +0.142 HD
ENDBRANCH  46  47
BRANCH  46  49
ATOM     49  CB  GLN A   1     -45.070 -26.937   3.821  0.00  0.00    +0.036 C 
BRANCH  49  50
ATOM     50  CG  GLN A   1     -46.067 -27.902   4.446  0.00  0.00    +0.087 C 
BRANCH  50  51
ATOM     51  CD  GLN A   1     -45.390 -29.060   5.157  0.00  0.00    +0.219 C 
ATOM     52  NE2 GLN A   1     -45.782 -29.304   6.402  0.00  0.00    -0.329 N 
ATOM     53 HE21 GLN A   1     -45.356 -30.088   6.937  0.00  0.00    +0.145 HD
ATOM     54 HE22 GLN A   1     -46.515 -28.712   6.842  0.00  0.00    +0.145 HD
ATOM     55  OE1 GLN A   1     -44.526 -29.731   4.589  0.00  0.00    -0.275 OA
ENDBRANCH  50  51
ENDBRANCH  49  50
ENDBRANCH  46  49
ENDBRANCH  42  46
ENDBRANCH  41  43
ENDBRANCH  37  41
ENDBRANCH  36  39
ENDBRANCH  32  36
ENDBRANCH  31  34
ENDBRANCH   1  31
TORSDOF 22
REMARK  Name = ../refined-set-2016/3n35/3n35_pocket.pdb
REMARK  103 active torsions:
REMARK  status: ('A' for Active; 'I' for Inactive)
REMARK    1  A    between atoms: _1  and  _3
REMARK    2  A    between atoms: _3  and  _4
REMARK    3  A    between atoms: _3  and  _6
REMARK    4  A    between atoms: _6  and  _7
REMARK    5  A    between atoms: _17  and  _19
REMARK    6  A    between atoms: _19  and  _20
REMARK    7  A    between atoms: _19  and  _22
REMARK    8  A    between atoms: _22  and  _23
REMARK    9  A    between atoms: _27  and  _28
REMARK   10  A    between atoms: _33  and  _35
REMARK   11  A    between atoms: _35  and  _36
REMARK   12  A    between atoms: _35  and  _38
REMARK   13  A    between atoms: _38  and  _39
REMARK   14  A    between atoms: _43  and  _44
REMARK   15  A    between atoms: _49  and  _51
REMARK   16  A    between atoms: _51  and  _52
REMARK   17  A    between atoms: _55  and  _57
REMARK   18  A    between atoms: _57  and  _58
REMARK   19  A    between atoms: _57  and  _60
REMARK   20  A    between atoms: _60  and  _61
REMARK   21  A    between atoms: _64  and  _66
REMARK   22  A    between atoms: _66  and  _67
REMARK   23  A    between atoms: _69  and  _71
REMARK   24  A    between atoms: _71  and  _72
REMARK   25  A    between atoms: _71  and  _74
REMARK   26  A    between atoms: _74  and  _75
REMARK   27  A    between atoms: _75  and  _76
REMARK   28  A    between atoms: _81  and  _83
REMARK   29  A    between atoms: _83  and  _84
REMARK   30  A    between atoms: _86  and  _88
REMARK   31  A    between atoms: _88  and  _89
REMARK   32  A    between atoms: _91  and  _93
REMARK   33  A    between atoms: _93  and  _94
REMARK   34  A    between atoms: _96  and  _98
REMARK   35  A    between atoms: _98  and  _99
REMARK   36  A    between atoms: _98  and  _101
REMARK   37  A    between atoms: _101  and  _102
REMARK   38  A    between atoms: _107  and  _108
REMARK   39  A    between atoms: _110  and  _112
REMARK   40  A    between atoms: _112  and  _113
REMARK   41  A    between atoms: _112  and  _115
REMARK   42  A    between atoms: _115  and  _116
REMARK   43  A    between atoms: _119  and  _121
REMARK   44  A    between atoms: _121  and  _122
REMARK   45  A    between atoms: _124  and  _126
REMARK   46  A    between atoms: _126  and  _127
REMARK   47  A    between atoms: _126  and  _129
REMARK   48  A    between atoms: _129  and  _130
REMARK   49  A    between atoms: _135  and  _137
REMARK   50  A    between atoms: _137  and  _138
REMARK   51  A    between atoms: _137  and  _140
REMARK   52  A    between atoms: _140  and  _141
REMARK   53  A    between atoms: _146  and  _148
REMARK   54  A    between atoms: _148  and  _149
REMARK   55  A    between atoms: _148  and  _151
REMARK   56  A    between atoms: _151  and  _152
REMARK   57  A    between atoms: _154  and  _156
REMARK   58  A    between atoms: _156  and  _157
REMARK   59  A    between atoms: _156  and  _159
REMARK   60  A    between atoms: _159  and  _160
REMARK   61  A    between atoms: _163  and  _165
REMARK   62  A    between atoms: _165  and  _166
REMARK   63  A    between atoms: _165  and  _168
REMARK   64  A    between atoms: _168  and  _169
REMARK   65  A    between atoms: _177  and  _180
REMARK   66  A    between atoms: _180  and  _181
REMARK   67  A    between atoms: _185  and  _188
REMARK   68  A    between atoms: _188  and  _189
REMARK   69  A    between atoms: _196  and  _199
REMARK   70  A    between atoms: _199  and  _200
REMARK   71  A    between atoms: _200  and  _201
REMARK   72  A    between atoms: _208  and  _211
REMARK   73  A    between atoms: _211  and  _212
REMARK   74  A    between atoms: _224  and  _225
REMARK   75  A    between atoms: _231  and  _233
REMARK   76  A    between atoms: _233  and  _234
REMARK   77  A    between atoms: _237  and  _239
REMARK   78  A    between atoms: _239  and  _240
REMARK   79  A    between atoms: _239  and  _242
REMARK   80  A    between atoms: _242  and  _243
REMARK   81  A    between atoms: _246  and  _248
REMARK   82  A    between atoms: _248  and  _249
REMARK   83  A    between atoms: _251  and  _253
REMARK   84  A    between atoms: _253  and  _254
REMARK   85  A    between atoms: _257  and  _259
REMARK   86  A    between atoms: _259  and  _260
REMARK   87  A    between atoms: _259  and  _262
REMARK   88  A    between atoms: _262  and  _263
REMARK   89  A    between atoms: _263  and  _264
REMARK   90  A    between atoms: _269  and  _271
REMARK   91  A    between atoms: _271  and  _272
REMARK   92  A    between atoms: _271  and  _274
REMARK   93  A    between atoms: _274  and  _275
REMARK   94  A    between atoms: _275  and  _276
REMARK   95  A    between atoms: _276  and  _277
REMARK   96  A    between atoms: _286  and  _288
REMARK   97  A    between atoms: _288  and  _289
REMARK   98  A    between atoms: _288  and  _291
REMARK   99  A    between atoms: _291  and  _292
REMARK  100  A    between atoms: _295  and  _297
REMARK  101  A    between atoms: _297  and  _298
REMARK  102  A    between atoms: _301  and  _303
REMARK  103  A    between atoms: _303  and  _304
REMARK                            x       y       z     vdW  Elec       q    Type
REMARK                         _______ _______ _______ _____ _____    ______ ____
ROOT
ATOM      1  CA  ASN A   2     -50.306 -26.420  -0.045  0.00  0.00    +0.158 C 
ENDROOT
BRANCH   1   4
ATOM      2  C   ASN A   1     -49.331 -26.360   2.191  0.00  0.00    +0.239 C 
ATOM      3  O   ASN A   1     -49.077 -27.562   2.180  0.00  0.00    -0.274 OA
ATOM      4  N   ASN A   2     -49.922 -25.733   1.181  0.00  0.00    -0.297 N 
ATOM      5  H   ASN A   2     -50.118 -24.715   1.268  0.00  0.00    +0.150 HD
BRANCH   2   6
ATOM      6  CA  ASN A   1     -48.985 -25.511   3.402  0.00  0.00    +0.154 C 
BRANCH   6   7
ATOM      7  N   ASN A   1     -48.953 -24.077   3.123  0.00  0.00    -0.238 NA
ATOM      8  H   ASN A   1     -49.836 -23.572   2.907  0.00  0.00    +0.142 HD
ENDBRANCH   6   7
BRANCH   6   9
ATOM      9  CB  ASN A   1     -49.972 -25.816   4.531  0.00  0.00    +0.111 C 
BRANCH   9  10
ATOM     10  CG  ASN A   1     -49.477 -25.341   5.873  0.00  0.00    +0.221 C 
ATOM     11  ND2 ASN A   1     -50.225 -24.435   6.491  0.00  0.00    -0.329 N 
ATOM     12 HD21 ASN A   1     -49.934 -24.065   7.418  0.00  0.00    +0.145 HD
ATOM     13 HD22 ASN A   1     -51.102 -24.095   6.048  0.00  0.00    +0.145 HD
ATOM     14  OD1 ASN A   1     -48.427 -25.780   6.352  0.00  0.00    -0.275 OA
ENDBRANCH   9  10
ENDBRANCH   6   9
ENDBRANCH   2   6
ENDBRANCH   1   4
BRANCH   1  15
ATOM     15  C   ASN A   2     -50.344 -25.386  -1.160  0.00  0.00    +0.241 C 
ATOM     16  O   ASN A   2     -49.969 -24.234  -0.946  0.00  0.00    -0.273 OA
ATOM     17  N   SER A   3     -50.792 -25.789  -2.344  0.00  0.00    -0.296 N 
ATOM     18  H   SER A   3     -51.105 -26.773  -2.466  0.00  0.00    +0.150 HD
BRANCH  17  19
ATOM     19  CA  SER A   3     -50.850 -24.871  -3.473  0.00  0.00    +0.166 C 
BRANCH  19  20
ATOM     20  CB  SER A   3     -52.245 -24.306  -3.716  0.00  0.00    +0.229 C 
ATOM     21  OG  SER A   3     -52.511 -23.720  -4.764  0.00  0.00    -0.286 OA
ENDBRANCH  19  20
BRANCH  19  22
ATOM     22  C   SER A   3     -50.349 -25.567  -4.739  0.00  0.00    +0.165 C 
BRANCH  22  23
ATOM     23  O   SER A   3     -51.125 -26.718  -5.020  0.00  0.00    -0.380 OA
ATOM     24  H   SER A   3     -50.784 -27.152  -5.842  0.00  0.00    +0.211 HD
ENDBRANCH  22  23
ENDBRANCH  19  22
ENDBRANCH  17  19
ENDBRANCH   1  15
BRANCH   1  25
ATOM     25  CB  ASN A   2     -51.681 -27.076   0.117  0.00  0.00    +0.114 C 
BRANCH  25  26
ATOM     26  CG  ASN A   2     -52.704 -26.136   0.718  0.00  0.00    +0.222 C 
ATOM     27  ND2 ASN A   2     -53.343 -26.573   1.800  0.00  0.00    -0.329 N 
ATOM     28 HD21 ASN A   2     -54.057 -25.973   2.260  0.00  0.00    +0.145 HD
ATOM     29 HD22 ASN A   2     -53.128 -27.514   2.186  0.00  0.00    +0.145 HD
ATOM     30  OD1 ASN A   2     -52.919 -25.029   0.218  0.00  0.00    -0.275 OA
ENDBRANCH  25  26
ENDBRANCH   1  25
TORSDOF 12
REMARK  Name = ../refined-set-2016/3n35/3n35_pocket.pdb
REMARK  103 active torsions:
REMARK  status: ('A' for Active; 'I' for Inactive)
REMARK    1  A    between atoms: _1  and  _3
REMARK    2  A    between atoms: _3  and  _4
REMARK    3  A    between atoms: _3  and  _6
REMARK    4  A    between atoms: _6  and  _7
REMARK    5  A    between atoms: _17  and  _19
REMARK    6  A    between atoms: _19  and  _20
REMARK    7  A    between atoms: _19  and  _22
REMARK    8  A    between atoms: _22  and  _23
REMARK    9  A    between atoms: _27  and  _28
REMARK   10  A    between atoms: _33  and  _35
REMARK   11  A    between atoms: _35  and  _36
REMARK   12  A    between atoms: _35  and  _38
REMARK   13  A    between atoms: _38  and  _39
REMARK   14  A    between atoms: _43  and  _44
REMARK   15  A    between atoms: _49  and  _51
REMARK   16  A    between atoms: _51  and  _52
REMARK   17  A    between atoms: _55  and  _57
REMARK   18  A    between atoms: _57  and  _58
REMARK   19  A    between atoms: _57  and  _60
REMARK   20  A    between atoms: _60  and  _61
REMARK   21  A    between atoms: _64  and  _66
REMARK   22  A    between atoms: _66  and  _67
REMARK   23  A    between atoms: _69  and  _71
REMARK   24  A    between atoms: _71  and  _72
REMARK   25  A    between atoms: _71  and  _74
REMARK   26  A    between atoms: _74  and  _75
REMARK   27  A    between atoms: _75  and  _76
REMARK   28  A    between atoms: _81  and  _83
REMARK   29  A    between atoms: _83  and  _84
REMARK   30  A    between atoms: _86  and  _88
REMARK   31  A    between atoms: _88  and  _89
REMARK   32  A    between atoms: _91  and  _93
REMARK   33  A    between atoms: _93  and  _94
REMARK   34  A    between atoms: _96  and  _98
REMARK   35  A    between atoms: _98  and  _99
REMARK   36  A    between atoms: _98  and  _101
REMARK   37  A    between atoms: _101  and  _102
REMARK   38  A    between atoms: _107  and  _108
REMARK   39  A    between atoms: _110  and  _112
REMARK   40  A    between atoms: _112  and  _113
REMARK   41  A    between atoms: _112  and  _115
REMARK   42  A    between atoms: _115  and  _116
REMARK   43  A    between atoms: _119  and  _121
REMARK   44  A    between atoms: _121  and  _122
REMARK   45  A    between atoms: _124  and  _126
REMARK   46  A    between atoms: _126  and  _127
REMARK   47  A    between atoms: _126  and  _129
REMARK   48  A    between atoms: _129  and  _130
REMARK   49  A    between atoms: _135  and  _137
REMARK   50  A    between atoms: _137  and  _138
REMARK   51  A    between atoms: _137  and  _140
REMARK   52  A    between atoms: _140  and  _141
REMARK   53  A    between atoms: _146  and  _148
REMARK   54  A    between atoms: _148  and  _149
REMARK   55  A    between atoms: _148  and  _151
REMARK   56  A    between atoms: _151  and  _152
REMARK   57  A    between atoms: _154  and  _156
REMARK   58  A    between atoms: _156  and  _157
REMARK   59  A    between atoms: _156  and  _159
REMARK   60  A    between atoms: _159  and  _160
REMARK   61  A    between atoms: _163  and  _165
REMARK   62  A    between atoms: _165  and  _166
REMARK   63  A    between atoms: _165  and  _168
REMARK   64  A    between atoms: _168  and  _169
REMARK   65  A    between atoms: _177  and  _180
REMARK   66  A    between atoms: _180  and  _181
REMARK   67  A    between atoms: _185  and  _188
REMARK   68  A    between atoms: _188  and  _189
REMARK   69  A    between atoms: _196  and  _199
REMARK   70  A    between atoms: _199  and  _200
REMARK   71  A    between atoms: _200  and  _201
REMARK   72  A    between atoms: _208  and  _211
REMARK   73  A    between atoms: _211  and  _212
REMARK   74  A    between atoms: _224  and  _225
REMARK   75  A    between atoms: _231  and  _233
REMARK   76  A    between atoms: _233  and  _234
REMARK   77  A    between atoms: _237  and  _239
REMARK   78  A    between atoms: _239  and  _240
REMARK   79  A    between atoms: _239  and  _242
REMARK   80  A    between atoms: _242  and  _243
REMARK   81  A    between atoms: _246  and  _248
REMARK   82  A    between atoms: _248  and  _249
REMARK   83  A    between atoms: _251  and  _253
REMARK   84  A    between atoms: _253  and  _254
REMARK   85  A    between atoms: _257  and  _259
REMARK   86  A    between atoms: _259  and  _260
REMARK   87  A    between atoms: _259  and  _262
REMARK   88  A    between atoms: _262  and  _263
REMARK   89  A    between atoms: _263  and  _264
REMARK   90  A    between atoms: _269  and  _271
REMARK   91  A    between atoms: _271  and  _272
REMARK   92  A    between atoms: _271  and  _274
REMARK   93  A    between atoms: _274  and  _275
REMARK   94  A    between atoms: _275  and  _276
REMARK   95  A    between atoms: _276  and  _277
REMARK   96  A    between atoms: _286  and  _288
REMARK   97  A    between atoms: _288  and  _289
REMARK   98  A    between atoms: _288  and  _291
REMARK   99  A    between atoms: _291  and  _292
REMARK  100  A    between atoms: _295  and  _297
REMARK  101  A    between atoms: _297  and  _298
REMARK  102  A    between atoms: _301  and  _303
REMARK  103  A    between atoms: _303  and  _304
REMARK                            x       y       z     vdW  Elec       q    Type
REMARK                         _______ _______ _______ _____ _____    ______ ____
ROOT
ATOM      1  CA  ASP A   1     -38.427 -18.131  -6.759  0.00  0.00    +0.144 C 
ENDROOT
BRANCH   1   2
ATOM      2  N   ASP A   1     -38.319 -16.706  -6.507  0.00  0.00    -0.239 NA
ATOM      3  H   ASP A   1     -38.816 -16.064  -7.157  0.00  0.00    +0.142 HD
ENDBRANCH   1   2
BRANCH   1   4
ATOM      4  C   ASP A   1     -37.394 -18.717  -7.712  0.00  0.00    +0.225 C 
ATOM      5  O   ASP A   1     -37.315 -18.304  -8.862  0.00  0.00    -0.287 OA
ENDBRANCH   1   4
BRANCH   1   6
ATOM      6  CB  ASP A   1     -39.822 -18.371  -7.312  0.00  0.00    +0.139 C 
BRANCH   6   7
ATOM      7  CG  ASP A   1     -40.281 -19.773  -7.130  0.00  0.00    +0.367 C 
ATOM      8  OD2 ASP A   1     -41.506 -19.971  -7.038  0.00  0.00    -0.246 OA
ATOM      9  OD1 ASP A   1     -39.424 -20.676  -7.093  0.00  0.00    -0.246 OA
ENDBRANCH   6   7
ENDBRANCH   1   6
TORSDOF 4
REMARK  Name = ../refined-set-2016/3n35/3n35_pocket.pdb
REMARK  103 active torsions:
REMARK  status: ('A' for Active; 'I' for Inactive)
REMARK    1  A    between atoms: _1  and  _3
REMARK    2  A    between atoms: _3  and  _4
REMARK    3  A    between atoms: _3  and  _6
REMARK    4  A    between atoms: _6  and  _7
REMARK    5  A    between atoms: _17  and  _19
REMARK    6  A    between atoms: _19  and  _20
REMARK    7  A    between atoms: _19  and  _22
REMARK    8  A    between atoms: _22  and  _23
REMARK    9  A    between atoms: _27  and  _28
REMARK   10  A    between atoms: _33  and  _35
REMARK   11  A    between atoms: _35  and  _36
REMARK   12  A    between atoms: _35  and  _38
REMARK   13  A    between atoms: _38  and  _39
REMARK   14  A    between atoms: _43  and  _44
REMARK   15  A    between atoms: _49  and  _51
REMARK   16  A    between atoms: _51  and  _52
REMARK   17  A    between atoms: _55  and  _57
REMARK   18  A    between atoms: _57  and  _58
REMARK   19  A    between atoms: _57  and  _60
REMARK   20  A    between atoms: _60  and  _61
REMARK   21  A    between atoms: _64  and  _66
REMARK   22  A    between atoms: _66  and  _67
REMARK   23  A    between atoms: _69  and  _71
REMARK   24  A    between atoms: _71  and  _72
REMARK   25  A    between atoms: _71  and  _74
REMARK   26  A    between atoms: _74  and  _75
REMARK   27  A    between atoms: _75  and  _76
REMARK   28  A    between atoms: _81  and  _83
REMARK   29  A    between atoms: _83  and  _84
REMARK   30  A    between atoms: _86  and  _88
REMARK   31  A    between atoms: _88  and  _89
REMARK   32  A    between atoms: _91  and  _93
REMARK   33  A    between atoms: _93  and  _94
REMARK   34  A    between atoms: _96  and  _98
REMARK   35  A    between atoms: _98  and  _99
REMARK   36  A    between atoms: _98  and  _101
REMARK   37  A    between atoms: _101  and  _102
REMARK   38  A    between atoms: _107  and  _108
REMARK   39  A    between atoms: _110  and  _112
REMARK   40  A    between atoms: _112  and  _113
REMARK   41  A    between atoms: _112  and  _115
REMARK   42  A    between atoms: _115  and  _116
REMARK   43  A    between atoms: _119  and  _121
REMARK   44  A    between atoms: _121  and  _122
REMARK   45  A    between atoms: _124  and  _126
REMARK   46  A    between atoms: _126  and  _127
REMARK   47  A    between atoms: _126  and  _129
REMARK   48  A    between atoms: _129  and  _130
REMARK   49  A    between atoms: _135  and  _137
REMARK   50  A    between atoms: _137  and  _138
REMARK   51  A    between atoms: _137  and  _140
REMARK   52  A    between atoms: _140  and  _141
REMARK   53  A    between atoms: _146  and  _148
REMARK   54  A    between atoms: _148  and  _149
REMARK   55  A    between atoms: _148  and  _151
REMARK   56  A    between atoms: _151  and  _152
REMARK   57  A    between atoms: _154  and  _156
REMARK   58  A    between atoms: _156  and  _157
REMARK   59  A    between atoms: _156  and  _159
REMARK   60  A    between atoms: _159  and  _160
REMARK   61  A    between atoms: _163  and  _165
REMARK   62  A    between atoms: _165  and  _166
REMARK   63  A    between atoms: _165  and  _168
REMARK   64  A    between atoms: _168  and  _169
REMARK   65  A    between atoms: _177  and  _180
REMARK   66  A    between atoms: _180  and  _181
REMARK   67  A    between atoms: _185  and  _188
REMARK   68  A    between atoms: _188  and  _189
REMARK   69  A    between atoms: _196  and  _199
REMARK   70  A    between atoms: _199  and  _200
REMARK   71  A    between atoms: _200  and  _201
REMARK   72  A    between atoms: _208  and  _211
REMARK   73  A    between atoms: _211  and  _212
REMARK   74  A    between atoms: _224  and  _225
REMARK   75  A    between atoms: _231  and  _233
REMARK   76  A    between atoms: _233  and  _234
REMARK   77  A    between atoms: _237  and  _239
REMARK   78  A    between atoms: _239  and  _240
REMARK   79  A    between atoms: _239  and  _242
REMARK   80  A    between atoms: _242  and  _243
REMARK   81  A    between atoms: _246  and  _248
REMARK   82  A    between atoms: _248  and  _249
REMARK   83  A    between atoms: _251  and  _253
REMARK   84  A    between atoms: _253  and  _254
REMARK   85  A    between atoms: _257  and  _259
REMARK   86  A    between atoms: _259  and  _260
REMARK   87  A    between atoms: _259  and  _262
REMARK   88  A    between atoms: _262  and  _263
REMARK   89  A    between atoms: _263  and  _264
REMARK   90  A    between atoms: _269  and  _271
REMARK   91  A    between atoms: _271  and  _272
REMARK   92  A    between atoms: _271  and  _274
REMARK   93  A    between atoms: _274  and  _275
REMARK   94  A    between atoms: _275  and  _276
REMARK   95  A    between atoms: _276  and  _277
REMARK   96  A    between atoms: _286  and  _288
REMARK   97  A    between atoms: _288  and  _289
REMARK   98  A    between atoms: _288  and  _291
REMARK   99  A    between atoms: _291  and  _292
REMARK  100  A    between atoms: _295  and  _297
REMARK  101  A    between atoms: _297  and  _298
REMARK  102  A    between atoms: _301  and  _303
REMARK  103  A    between atoms: _303  and  _304
REMARK                            x       y       z     vdW  Elec       q    Type
REMARK                         _______ _______ _______ _____ _____    ______ ____
ROOT
ATOM      1  C   UNK A   0     -38.733 -23.648  -9.392  0.00  0.00    +0.000 C 
ATOM      2  O   UNK A   0     -39.646 -23.175  -8.746  0.00  0.00    +0.000 OA
ATOM      3 CA   UNK A   0     -41.189 -22.497  -6.927  0.00  0.00    +0.000 Ca
ATOM      4  O   UNK A   1     -42.602 -22.452  -8.876  0.00  0.00    +0.000 OA
ATOM      5  C   UNK A   1     -43.455 -21.808  -9.500  0.00  0.00    +0.000 C 
ATOM      6  O   UNK A   1     -44.143 -20.904  -9.002  0.00  0.00    +0.000 OA
ATOM      7  C   UNK A   1     -43.647 -22.148 -10.943  0.00  0.00    +0.000 C 
ATOM      8  C   UNK A   1     -45.090 -21.975 -11.411  0.00  0.00    +0.000 C 
ATOM      9  N   UNK A   1     -45.920 -23.080 -10.961  0.00  0.00    +0.000 N 
ATOM     10  C   UNK A   1     -47.194 -22.908 -10.633  0.00  0.00    +0.000 C 
ATOM     11  C   UNK A   1     -47.939 -24.146 -10.145  0.00  0.00    +0.000 C 
ATOM     12  N   UNK A   1     -47.085 -25.334 -10.151  0.00  0.00    +0.000 N 
ATOM     13  H   UNK A   1     -46.474 -25.525  -9.331  0.00  0.00    +0.000 HD
ATOM     14  C   UNK A   1     -47.072 -26.174 -11.180  0.00  0.00    +0.000 C 
ATOM     15  C   UNK A   1     -46.142 -27.383 -11.079  0.00  0.00    +0.000 C 
ATOM     16  N   UNK A   1     -45.033 -27.211 -10.149  0.00  0.00    +0.000 N 
ATOM     17  H   UNK A   1     -44.950 -27.829  -9.316  0.00  0.00    +0.000 HD
ATOM     18  C   UNK A   1     -44.130 -26.265 -10.367  0.00  0.00    +0.000 C 
ATOM     19  C   UNK A   1     -42.976 -26.159  -9.372  0.00  0.00    +0.000 C 
ATOM     20  N   UNK A   1     -42.052 -25.118  -9.822  0.00  0.00    +0.000 N 
ATOM     21  H   UNK A   1     -42.108 -24.168  -9.402  0.00  0.00    +0.000 HD
ATOM     22  C   UNK A   1     -41.138 -25.366 -10.763  0.00  0.00    +0.000 C 
ATOM     23  C   UNK A   1     -40.249 -24.195 -11.194  0.00  0.00    +0.000 C 
ATOM     24  O   UNK A   1     -40.996 -26.482 -11.273  0.00  0.00    +0.000 OA
ATOM     25  O   UNK A   1     -44.207 -25.494 -11.320  0.00  0.00    +0.000 OA
ATOM     26  O   UNK A   1     -47.749 -25.997 -12.189  0.00  0.00    +0.000 OA
ATOM     27  O   UNK A   1     -47.764 -21.815 -10.706  0.00  0.00    +0.000 OA
ATOM     28  H   UNK A   1     -45.504 -24.031 -10.894  0.00  0.00    +0.000 HD
ATOM     29  N   UNK A   1     -38.919 -24.186 -10.592  0.00  0.00    +0.000 NA
ATOM     30  H   UNK A   1     -38.115 -24.602 -11.104  0.00  0.00    +0.000 HD
ENDROOT
BRANCH   8  31
ATOM     31  C   UNK A   1     -44.986 -21.794 -12.900  0.00  0.00    +0.000 C 
ATOM     32  O   UNK A   1     -45.309 -22.688 -13.679  0.00  0.00    +0.000 OA
ENDBRANCH   8  31
BRANCH   1  33
ATOM     33  C   UNK A   0     -37.331 -23.652  -8.818  0.00  0.00    +0.000 C 
BRANCH  33  34
ATOM     34  N   UNK A   0     -37.009 -22.326  -8.278  0.00  0.00    +0.000 NA
ATOM     35  H   UNK A   0     -37.659 -21.878  -7.601  0.00  0.00    +0.000 HD
ENDBRANCH  33  34
BRANCH  33  36
ATOM     36  C   UNK A   0     -37.260 -24.709  -7.713  0.00  0.00    +0.000 C 
BRANCH  36  37
ATOM     37  C   UNK A   0     -37.535 -26.105  -8.196  0.00  0.00    +0.000 A 
ATOM     38  C   UNK A   0     -38.825 -26.627  -8.153  0.00  0.00    +0.000 A 
ATOM     39  C   UNK A   0     -39.094 -27.911  -8.631  0.00  0.00    +0.000 A 
ATOM     40  C   UNK A   0     -38.062 -28.687  -9.158  0.00  0.00    +0.000 A 
ATOM     41  C   UNK A   0     -36.768 -28.175  -9.204  0.00  0.00    +0.000 A 
ATOM     42  C   UNK A   0     -36.512 -26.888  -8.723  0.00  0.00    +0.000 A 
ENDBRANCH  36  37
ENDBRANCH  33  36
ENDBRANCH   1  33
BRANCH  11  43
ATOM     43  C   UNK A   1     -48.452 -23.890  -8.729  0.00  0.00    +0.000 C 
BRANCH  43  44
ATOM     44  C   UNK A   1     -47.343 -23.738  -7.728  0.00  0.00    +0.000 A 
ATOM     45  C   UNK A   1     -46.901 -24.725  -6.791  0.00  0.00    +0.000 A 
ATOM     46  C   UNK A   1     -45.809 -24.170  -6.082  0.00  0.00    +0.000 A 
ATOM     47  C   UNK A   1     -45.133 -24.871  -5.081  0.00  0.00    +0.000 A 
ATOM     48  C   UNK A   1     -45.557 -26.146  -4.800  0.00  0.00    +0.000 A 
ATOM     49  C   UNK A   1     -46.638 -26.730  -5.488  0.00  0.00    +0.000 A 
ATOM     50  N   UNK A   1     -45.605 -22.905  -6.567  0.00  0.00    +0.000 N 
ATOM     51  H   UNK A   1     -44.871 -22.244  -6.242  0.00  0.00    +0.000 HD
ATOM     52  C   UNK A   1     -47.314 -26.030  -6.484  0.00  0.00    +0.000 A 
ATOM     53  C   UNK A   1     -46.530 -22.652  -7.555  0.00  0.00    +0.000 A 
ENDBRANCH  43  44
ENDBRANCH  11  43
BRANCH  19  54
ATOM     54  C   UNK A   1     -43.531 -25.851  -7.978  0.00  0.00    +0.000 C 
BRANCH  54  55
ATOM     55  C   UNK A   1     -42.468 -25.908  -6.901  0.00  0.00    +0.000 C 
ATOM     56  N   UNK A   1     -42.286 -27.079  -6.304  0.00  0.00    +0.000 N 
ATOM     57  H   UNK A   1     -41.563 -27.178  -5.563  0.00  0.00    +0.000 HD
ATOM     58  H   UNK A   1     -42.867 -27.898  -6.577  0.00  0.00    +0.000 HD
ATOM     59  O   UNK A   1     -41.811 -24.916  -6.616  0.00  0.00    +0.000 OA
ENDBRANCH  54  55
ENDBRANCH  19  54
BRANCH  23  60
ATOM     60  C   UNK A   1     -40.127 -24.185 -12.724  0.00  0.00    +0.000 C 
BRANCH  60  61
ATOM     61  O   UNK A   1     -41.397 -24.055 -13.340  0.00  0.00    +0.000 OA
ATOM     62  H   UNK A   1     -41.817 -23.207 -13.051  0.00  0.00    +0.000 HD
ENDBRANCH  60  61
ENDBRANCH  23  60
BRANCH  15  63
ATOM     63  C   UNK A   1     -46.934 -28.641 -10.717  0.00  0.00    +0.000 C 
BRANCH  63  64
ATOM     64  C   UNK A   1     -46.089 -29.907 -10.815  0.00  0.00    +0.000 C 
BRANCH  64  65
ATOM     65  C   UNK A   1     -45.513 -30.130 -12.212  0.00  0.00    +0.000 C 
ATOM     66  O   UNK A   1     -44.354 -30.527 -12.362  0.00  0.00    +0.000 OA
ATOM     67  N   UNK A   1     -46.327 -29.888 -13.239  0.00  0.00    +0.000 N 
ATOM     68  H   UNK A   1     -47.297 -29.554 -13.066  0.00  0.00    +0.000 HD
ATOM     69  H   UNK A   1     -45.992 -30.033 -14.213  0.00  0.00    +0.000 HD
ENDBRANCH  64  65
ENDBRANCH  63  64
ENDBRANCH  15  63
TORSDOF 14
REMARK  Name = ../refined-set-2016/3n35/3n35_pocket.pdb
REMARK  103 active torsions:
REMARK  status: ('A' for Active; 'I' for Inactive)
REMARK    1  A    between atoms: _1  and  _3
REMARK    2  A    between atoms: _3  and  _4
REMARK    3  A    between atoms: _3  and  _6
REMARK    4  A    between atoms: _6  and  _7
REMARK    5  A    between atoms: _17  and  _19
REMARK    6  A    between atoms: _19  and  _20
REMARK    7  A    between atoms: _19  and  _22
REMARK    8  A    between atoms: _22  and  _23
REMARK    9  A    between atoms: _27  and  _28
REMARK   10  A    between atoms: _33  and  _35
REMARK   11  A    between atoms: _35  and  _36
REMARK   12  A    between atoms: _35  and  _38
REMARK   13  A    between atoms: _38  and  _39
REMARK   14  A    between atoms: _43  and  _44
REMARK   15  A    between atoms: _49  and  _51
REMARK   16  A    between atoms: _51  and  _52
REMARK   17  A    between atoms: _55  and  _57
REMARK   18  A    between atoms: _57  and  _58
REMARK   19  A    between atoms: _57  and  _60
REMARK   20  A    between atoms: _60  and  _61
REMARK   21  A    between atoms: _64  and  _66
REMARK   22  A    between atoms: _66  and  _67
REMARK   23  A    between atoms: _69  and  _71
REMARK   24  A    between atoms: _71  and  _72
REMARK   25  A    between atoms: _71  and  _74
REMARK   26  A    between atoms: _74  and  _75
REMARK   27  A    between atoms: _75  and  _76
REMARK   28  A    between atoms: _81  and  _83
REMARK   29  A    between atoms: _83  and  _84
REMARK   30  A    between atoms: _86  and  _88
REMARK   31  A    between atoms: _88  and  _89
REMARK   32  A    between atoms: _91  and  _93
REMARK   33  A    between atoms: _93  and  _94
REMARK   34  A    between atoms: _96  and  _98
REMARK   35  A    between atoms: _98  and  _99
REMARK   36  A    between atoms: _98  and  _101
REMARK   37  A    between atoms: _101  and  _102
REMARK   38  A    between atoms: _107  and  _108
REMARK   39  A    between atoms: _110  and  _112
REMARK   40  A    between atoms: _112  and  _113
REMARK   41  A    between atoms: _112  and  _115
REMARK   42  A    between atoms: _115  and  _116
REMARK   43  A    between atoms: _119  and  _121
REMARK   44  A    between atoms: _121  and  _122
REMARK   45  A    between atoms: _124  and  _126
REMARK   46  A    between atoms: _126  and  _127
REMARK   47  A    between atoms: _126  and  _129
REMARK   48  A    between atoms: _129  and  _130
REMARK   49  A    between atoms: _135  and  _137
REMARK   50  A    between atoms: _137  and  _138
REMARK   51  A    between atoms: _137  and  _140
REMARK   52  A    between atoms: _140  and  _141
REMARK   53  A    between atoms: _146  and  _148
REMARK   54  A    between atoms: _148  and  _149
REMARK   55  A    between atoms: _148  and  _151
REMARK   56  A    between atoms: _151  and  _152
REMARK   57  A    between atoms: _154  and  _156
REMARK   58  A    between atoms: _156  and  _157
REMARK   59  A    between atoms: _156  and  _159
REMARK   60  A    between atoms: _159  and  _160
REMARK   61  A    between atoms: _163  and  _165
REMARK   62  A    between atoms: _165  and  _166
REMARK   63  A    between atoms: _165  and  _168
REMARK   64  A    between atoms: _168  and  _169
REMARK   65  A    between atoms: _177  and  _180
REMARK   66  A    between atoms: _180  and  _181
REMARK   67  A    between atoms: _185  and  _188
REMARK   68  A    between atoms: _188  and  _189
REMARK   69  A    between atoms: _196  and  _199
REMARK   70  A    between atoms: _199  and  _200
REMARK   71  A    between atoms: _200  and  _201
REMARK   72  A    between atoms: _208  and  _211
REMARK   73  A    between atoms: _211  and  _212
REMARK   74  A    between atoms: _224  and  _225
REMARK   75  A    between atoms: _231  and  _233
REMARK   76  A    between atoms: _233  and  _234
REMARK   77  A    between atoms: _237  and  _239
REMARK   78  A    between atoms: _239  and  _240
REMARK   79  A    between atoms: _239  and  _242
REMARK   80  A    between atoms: _242  and  _243
REMARK   81  A    between atoms: _246  and  _248
REMARK   82  A    between atoms: _248  and  _249
REMARK   83  A    between atoms: _251  and  _253
REMARK   84  A    between atoms: _253  and  _254
REMARK   85  A    between atoms: _257  and  _259
REMARK   86  A    between atoms: _259  and  _260
REMARK   87  A    between atoms: _259  and  _262
REMARK   88  A    between atoms: _262  and  _263
REMARK   89  A    between atoms: _263  and  _264
REMARK   90  A    between atoms: _269  and  _271
REMARK   91  A    between atoms: _271  and  _272
REMARK   92  A    between atoms: _271  and  _274
REMARK   93  A    between atoms: _274  and  _275
REMARK   94  A    between atoms: _275  and  _276
REMARK   95  A    between atoms: _276  and  _277
REMARK   96  A    between atoms: _286  and  _288
REMARK   97  A    between atoms: _288  and  _289
REMARK   98  A    between atoms: _288  and  _291
REMARK   99  A    between atoms: _291  and  _292
REMARK  100  A    between atoms: _295  and  _297
REMARK  101  A    between atoms: _297  and  _298
REMARK  102  A    between atoms: _301  and  _303
REMARK  103  A    between atoms: _303  and  _304
REMARK                            x       y       z     vdW  Elec       q    Type
REMARK                         _______ _______ _______ _____ _____    ______ ____
ROOT
ATOM      1  C   GLN A   5     -32.504 -33.349  -2.636  0.00  0.00    +0.241 C 
ATOM      2  O   GLN A   5     -32.146 -32.185  -2.462  0.00  0.00    -0.273 OA
ATOM      3  N   ARG A   6     -31.675 -34.381  -2.491  0.00  0.00    -0.297 N 
ATOM      4  H   ARG A   6     -32.021 -35.349  -2.650  0.00  0.00    +0.150 HD
ENDROOT
BRANCH   3   5
ATOM      5  CA  ARG A   6     -30.282 -34.160  -2.109  0.00  0.00    +0.149 C 
BRANCH   5   6
ATOM      6  C   ARG A   6     -29.574 -33.204  -3.060  0.00  0.00    +0.241 C 
ATOM      7  N   ASP A   7     -28.886 -32.228  -2.476  0.00  0.00    -0.297 N 
ATOM      8  H   ASP A   7     -28.880 -32.185  -1.437  0.00  0.00    +0.150 HD
ATOM      9  O   ARG A   6     -29.654 -33.342  -4.281  0.00  0.00    -0.273 OA
BRANCH   7  10
ATOM     10  CA  ASP A   7     -28.140 -31.215  -3.212  0.00  0.00    +0.160 C 
BRANCH  10  11
ATOM     11  C   ASP A   7     -28.960 -30.241  -4.050  0.00  0.00    +0.241 C 
ATOM     12  N   ALA A   8     -30.274 -30.255  -3.878  0.00  0.00    -0.297 N 
ATOM     13  H   ALA A   8     -30.708 -30.949  -3.236  0.00  0.00    +0.150 HD
ATOM     14  O   ASP A   7     -28.409 -29.495  -4.854  0.00  0.00    -0.273 OA
BRANCH  12  15
ATOM     15  CA  ALA A   8     -31.111 -29.297  -4.590  0.00  0.00    +0.149 C 
ATOM     16  CB  ALA A   8     -32.523 -29.839  -4.762  0.00  0.00    +0.031 C 
BRANCH  15  17
ATOM     17  C   ALA A   8     -31.099 -28.131  -3.603  0.00  0.00    +0.241 C 
ATOM     18  O   ALA A   8     -32.033 -27.955  -2.824  0.00  0.00    -0.273 OA
ATOM     19  N   ALA A   9     -30.022 -27.355  -3.620  0.00  0.00    -0.298 N 
ATOM     20  H   ALA A   9     -29.266 -27.534  -4.312  0.00  0.00    +0.150 HD
BRANCH  19  21
ATOM     21  CA  ALA A   9     -29.894 -26.256  -2.676  0.00  0.00    +0.137 C 
ATOM     22  CB  ALA A   9     -29.270 -26.767  -1.379  0.00  0.00    +0.030 C 
BRANCH  21  23
ATOM     23  C   ALA A   9     -29.102 -25.068  -3.190  0.00  0.00    +0.227 C 
ATOM     24  O   ALA A   9     -28.477 -25.117  -4.252  0.00  0.00    -0.286 OA
ENDBRANCH  21  23
ENDBRANCH  19  21
ENDBRANCH  15  17
ENDBRANCH  12  15
ENDBRANCH  10  11
BRANCH  10  25
ATOM     25  CB  ASP A   7     -27.056 -31.864  -4.074  0.00  0.00    +0.143 C 
BRANCH  25  26
ATOM     26  CG  ASP A   7     -25.991 -32.539  -3.238  0.00  0.00    +0.367 C 
ATOM     27  OD2 ASP A   7     -25.732 -32.047  -2.120  0.00  0.00    -0.246 OA
ATOM     28  OD1 ASP A   7     -25.414 -33.547  -3.693  0.00  0.00    -0.246 OA
ENDBRANCH  25  26
ENDBRANCH  10  25
ENDBRANCH   7  10
ENDBRANCH   5   6
BRANCH   5  29
ATOM     29  CB  ARG A   6     -29.508 -35.484  -2.048  0.00  0.00    +0.033 C 
BRANCH  29  30
ATOM     30  CG  ARG A   6     -28.046 -35.313  -1.633  0.00  0.00    +0.045 C 
BRANCH  30  31
ATOM     31  CD  ARG A   6     -27.345 -36.657  -1.474  0.00  0.00    +0.174 C 
BRANCH  31  32
ATOM     32  NE  ARG A   6     -27.926 -37.451  -0.393  0.00  0.00    -0.265 N 
ATOM     33  CZ  ARG A   6     -27.417 -37.538   0.833  0.00  0.00    +0.342 C 
ATOM     34  NH2 ARG A   6     -28.021 -38.282   1.752  0.00  0.00    -0.292 N 
ATOM     35 HH21 ARG A   6     -27.623 -38.350   2.710  0.00  0.00    +0.255 HD
ATOM     36 HH22 ARG A   6     -28.892 -38.797   1.514  0.00  0.00    +0.255 HD
ATOM     37  NH1 ARG A   6     -26.306 -36.883   1.142  0.00  0.00    -0.292 N 
ATOM     38 HH11 ARG A   6     -25.911 -36.953   2.101  0.00  0.00    +0.255 HD
ATOM     39 HH12 ARG A   6     -25.830 -36.299   0.425  0.00  0.00    +0.255 HD
ATOM     40  HE  ARG A   6     -28.796 -37.984  -0.596  0.00  0.00    +0.259 HD
ENDBRANCH  31  32
ENDBRANCH  30  31
ENDBRANCH  29  30
ENDBRANCH   5  29
ENDBRANCH   3   5
BRANCH   1  41
ATOM     41  CA  GLN A   5     -33.947 -33.656  -3.033  0.00  0.00    +0.149 C 
BRANCH  41  44
ATOM     42  C   ALA A   4     -35.612 -32.887  -1.423  0.00  0.00    +0.241 C 
ATOM     43  O   ALA A   4     -35.743 -34.019  -0.961  0.00  0.00    -0.273 OA
ATOM     44  N   GLN A   5     -34.788 -32.617  -2.433  0.00  0.00    -0.297 N 
ATOM     45  H   GLN A   5     -34.740 -31.647  -2.805  0.00  0.00    +0.150 HD
BRANCH  42  46
ATOM     46  CA  ALA A   4     -36.422 -31.723  -0.849  0.00  0.00    +0.149 C 
ATOM     47  CB  ALA A   4     -37.912 -32.039  -0.922  0.00  0.00    +0.031 C 
BRANCH  46  50
ATOM     48  C   GLY A   3     -35.211 -29.609  -1.118  0.00  0.00    +0.243 C 
ATOM     49  O   GLY A   3     -34.456 -29.827  -0.169  0.00  0.00    -0.273 OA
ATOM     50  N   ALA A   4     -36.159 -30.455  -1.517  0.00  0.00    -0.297 N 
ATOM     51  H   ALA A   4     -36.738 -30.199  -2.342  0.00  0.00    +0.150 HD
BRANCH  48  52
ATOM     52  CA  GLY A   3     -35.107 -28.344  -1.946  0.00  0.00    +0.176 C 
BRANCH  52  55
ATOM     53  C   THR A   2     -34.676 -26.520  -0.393  0.00  0.00    +0.243 C 
ATOM     54  O   THR A   2     -35.615 -26.846   0.344  0.00  0.00    -0.273 OA
ATOM     55  N   GLY A   3     -34.338 -27.200  -1.486  0.00  0.00    -0.295 N 
ATOM     56  H   GLY A   3     -33.500 -26.904  -2.026  0.00  0.00    +0.150 HD
BRANCH  53  57
ATOM     57  CA  THR A   2     -33.825 -25.290  -0.064  0.00  0.00    +0.176 C 
BRANCH  57  59
ATOM     58  C   ALA A   1     -35.160 -23.378   0.662  0.00  0.00    +0.238 C 
ATOM     59  N   THR A   2     -34.558 -24.532   0.947  0.00  0.00    -0.295 N 
ATOM     60  H   THR A   2     -34.611 -24.904   1.917  0.00  0.00    +0.150 HD
ATOM     61  O   ALA A   1     -35.087 -22.824  -0.438  0.00  0.00    -0.274 OA
BRANCH  58  62
ATOM     62  CA  ALA A   1     -35.959 -22.751   1.793  0.00  0.00    +0.145 C 
ATOM     63  CB  ALA A   1     -37.407 -23.223   1.706  0.00  0.00    +0.028 C 
BRANCH  62  64
ATOM     64  N   ALA A   1     -35.911 -21.296   1.775  0.00  0.00    -0.238 NA
ATOM     65  H   ALA A   1     -35.733 -20.797   0.880  0.00  0.00    +0.142 HD
ENDBRANCH  62  64
ENDBRANCH  58  62
ENDBRANCH  57  59
BRANCH  57  66
ATOM     66  CB  THR A   2     -32.426 -25.719   0.421  0.00  0.00    +0.137 C 
ATOM     67  CG2 THR A   2     -31.509 -24.511   0.510  0.00  0.00    +0.034 C 
BRANCH  66  68
ATOM     68  OG1 THR A   2     -32.524 -26.341   1.707  0.00  0.00    -0.382 OA
ATOM     69  HG1 THR A   2     -31.622 -26.613   2.010  0.00  0.00    +0.210 HD
ENDBRANCH  66  68
ENDBRANCH  57  66
ENDBRANCH  53  57
ENDBRANCH  52  55
ENDBRANCH  48  52
ENDBRANCH  46  50
ENDBRANCH  42  46
ENDBRANCH  41  44
BRANCH  41  70
ATOM     70  CB  GLN A   5     -34.062 -33.645  -4.565  0.00  0.00    +0.039 C 
BRANCH  70  71
ATOM     71  CG  GLN A   5     -35.463 -33.914  -5.125  0.00  0.00    +0.087 C 
BRANCH  71  72
ATOM     72  CD  GLN A   5     -35.934 -35.351  -4.933  0.00  0.00    +0.219 C 
ATOM     73  NE2 GLN A   5     -37.048 -35.517  -4.227  0.00  0.00    -0.329 N 
ATOM     74 HE21 GLN A   5     -37.543 -34.691  -3.834  0.00  0.00    +0.145 HD
ATOM     75 HE22 GLN A   5     -37.425 -36.473  -4.067  0.00  0.00    +0.145 HD
ATOM     76  OE1 GLN A   5     -35.310 -36.296  -5.420  0.00  0.00    -0.275 OA
ENDBRANCH  71  72
ENDBRANCH  70  71
ENDBRANCH  41  70
ENDBRANCH   1  41
TORSDOF 29
REMARK  Name = ../refined-set-2016/3n35/3n35_pocket.pdb
REMARK  103 active torsions:
REMARK  status: ('A' for Active; 'I' for Inactive)
REMARK    1  A    between atoms: _1  and  _3
REMARK    2  A    between atoms: _3  and  _4
REMARK    3  A    between atoms: _3  and  _6
REMARK    4  A    between atoms: _6  and  _7
REMARK    5  A    between atoms: _17  and  _19
REMARK    6  A    between atoms: _19  and  _20
REMARK    7  A    between atoms: _19  and  _22
REMARK    8  A    between atoms: _22  and  _23
REMARK    9  A    between atoms: _27  and  _28
REMARK   10  A    between atoms: _33  and  _35
REMARK   11  A    between atoms: _35  and  _36
REMARK   12  A    between atoms: _35  and  _38
REMARK   13  A    between atoms: _38  and  _39
REMARK   14  A    between atoms: _43  and  _44
REMARK   15  A    between atoms: _49  and  _51
REMARK   16  A    between atoms: _51  and  _52
REMARK   17  A    between atoms: _55  and  _57
REMARK   18  A    between atoms: _57  and  _58
REMARK   19  A    between atoms: _57  and  _60
REMARK   20  A    between atoms: _60  and  _61
REMARK   21  A    between atoms: _64  and  _66
REMARK   22  A    between atoms: _66  and  _67
REMARK   23  A    between atoms: _69  and  _71
REMARK   24  A    between atoms: _71  and  _72
REMARK   25  A    between atoms: _71  and  _74
REMARK   26  A    between atoms: _74  and  _75
REMARK   27  A    between atoms: _75  and  _76
REMARK   28  A    between atoms: _81  and  _83
REMARK   29  A    between atoms: _83  and  _84
REMARK   30  A    between atoms: _86  and  _88
REMARK   31  A    between atoms: _88  and  _89
REMARK   32  A    between atoms: _91  and  _93
REMARK   33  A    between atoms: _93  and  _94
REMARK   34  A    between atoms: _96  and  _98
REMARK   35  A    between atoms: _98  and  _99
REMARK   36  A    between atoms: _98  and  _101
REMARK   37  A    between atoms: _101  and  _102
REMARK   38  A    between atoms: _107  and  _108
REMARK   39  A    between atoms: _110  and  _112
REMARK   40  A    between atoms: _112  and  _113
REMARK   41  A    between atoms: _112  and  _115
REMARK   42  A    between atoms: _115  and  _116
REMARK   43  A    between atoms: _119  and  _121
REMARK   44  A    between atoms: _121  and  _122
REMARK   45  A    between atoms: _124  and  _126
REMARK   46  A    between atoms: _126  and  _127
REMARK   47  A    between atoms: _126  and  _129
REMARK   48  A    between atoms: _129  and  _130
REMARK   49  A    between atoms: _135  and  _137
REMARK   50  A    between atoms: _137  and  _138
REMARK   51  A    between atoms: _137  and  _140
REMARK   52  A    between atoms: _140  and  _141
REMARK   53  A    between atoms: _146  and  _148
REMARK   54  A    between atoms: _148  and  _149
REMARK   55  A    between atoms: _148  and  _151
REMARK   56  A    between atoms: _151  and  _152
REMARK   57  A    between atoms: _154  and  _156
REMARK   58  A    between atoms: _156  and  _157
REMARK   59  A    between atoms: _156  and  _159
REMARK   60  A    between atoms: _159  and  _160
REMARK   61  A    between atoms: _163  and  _165
REMARK   62  A    between atoms: _165  and  _166
REMARK   63  A    between atoms: _165  and  _168
REMARK   64  A    between atoms: _168  and  _169
REMARK   65  A    between atoms: _177  and  _180
REMARK   66  A    between atoms: _180  and  _181
REMARK   67  A    between atoms: _185  and  _188
REMARK   68  A    between atoms: _188  and  _189
REMARK   69  A    between atoms: _196  and  _199
REMARK   70  A    between atoms: _199  and  _200
REMARK   71  A    between atoms: _200  and  _201
REMARK   72  A    between atoms: _208  and  _211
REMARK   73  A    between atoms: _211  and  _212
REMARK   74  A    between atoms: _224  and  _225
REMARK   75  A    between atoms: _231  and  _233
REMARK   76  A    between atoms: _233  and  _234
REMARK   77  A    between atoms: _237  and  _239
REMARK   78  A    between atoms: _239  and  _240
REMARK   79  A    between atoms: _239  and  _242
REMARK   80  A    between atoms: _242  and  _243
REMARK   81  A    between atoms: _246  and  _248
REMARK   82  A    between atoms: _248  and  _249
REMARK   83  A    between atoms: _251  and  _253
REMARK   84  A    between atoms: _253  and  _254
REMARK   85  A    between atoms: _257  and  _259
REMARK   86  A    between atoms: _259  and  _260
REMARK   87  A    between atoms: _259  and  _262
REMARK   88  A    between atoms: _262  and  _263
REMARK   89  A    between atoms: _263  and  _264
REMARK   90  A    between atoms: _269  and  _271
REMARK   91  A    between atoms: _271  and  _272
REMARK   92  A    between atoms: _271  and  _274
REMARK   93  A    between atoms: _274  and  _275
REMARK   94  A    between atoms: _275  and  _276
REMARK   95  A    between atoms: _276  and  _277
REMARK   96  A    between atoms: _286  and  _288
REMARK   97  A    between atoms: _288  and  _289
REMARK   98  A    between atoms: _288  and  _291
REMARK   99  A    between atoms: _291  and  _292
REMARK  100  A    between atoms: _295  and  _297
REMARK  101  A    between atoms: _297  and  _298
REMARK  102  A    between atoms: _301  and  _303
REMARK  103  A    between atoms: _303  and  _304
REMARK                            x       y       z     vdW  Elec       q    Type
REMARK                         _______ _______ _______ _____ _____    ______ ____
ROOT
ATOM      1  O   HOH     1     -39.397 -22.936  -5.050  0.00  0.00    +0.000 OA
ENDROOT
TORSDOF 0
REMARK  Name = ../refined-set-2016/3n35/3n35_pocket.pdb
REMARK  103 active torsions:
REMARK  status: ('A' for Active; 'I' for Inactive)
REMARK    1  A    between atoms: _1  and  _3
REMARK    2  A    between atoms: _3  and  _4
REMARK    3  A    between atoms: _3  and  _6
REMARK    4  A    between atoms: _6  and  _7
REMARK    5  A    between atoms: _17  and  _19
REMARK    6  A    between atoms: _19  and  _20
REMARK    7  A    between atoms: _19  and  _22
REMARK    8  A    between atoms: _22  and  _23
REMARK    9  A    between atoms: _27  and  _28
REMARK   10  A    between atoms: _33  and  _35
REMARK   11  A    between atoms: _35  and  _36
REMARK   12  A    between atoms: _35  and  _38
REMARK   13  A    between atoms: _38  and  _39
REMARK   14  A    between atoms: _43  and  _44
REMARK   15  A    between atoms: _49  and  _51
REMARK   16  A    between atoms: _51  and  _52
REMARK   17  A    between atoms: _55  and  _57
REMARK   18  A    between atoms: _57  and  _58
REMARK   19  A    between atoms: _57  and  _60
REMARK   20  A    between atoms: _60  and  _61
REMARK   21  A    between atoms: _64  and  _66
REMARK   22  A    between atoms: _66  and  _67
REMARK   23  A    between atoms: _69  and  _71
REMARK   24  A    between atoms: _71  and  _72
REMARK   25  A    between atoms: _71  and  _74
REMARK   26  A    between atoms: _74  and  _75
REMARK   27  A    between atoms: _75  and  _76
REMARK   28  A    between atoms: _81  and  _83
REMARK   29  A    between atoms: _83  and  _84
REMARK   30  A    between atoms: _86  and  _88
REMARK   31  A    between atoms: _88  and  _89
REMARK   32  A    between atoms: _91  and  _93
REMARK   33  A    between atoms: _93  and  _94
REMARK   34  A    between atoms: _96  and  _98
REMARK   35  A    between atoms: _98  and  _99
REMARK   36  A    between atoms: _98  and  _101
REMARK   37  A    between atoms: _101  and  _102
REMARK   38  A    between atoms: _107  and  _108
REMARK   39  A    between atoms: _110  and  _112
REMARK   40  A    between atoms: _112  and  _113
REMARK   41  A    between atoms: _112  and  _115
REMARK   42  A    between atoms: _115  and  _116
REMARK   43  A    between atoms: _119  and  _121
REMARK   44  A    between atoms: _121  and  _122
REMARK   45  A    between atoms: _124  and  _126
REMARK   46  A    between atoms: _126  and  _127
REMARK   47  A    between atoms: _126  and  _129
REMARK   48  A    between atoms: _129  and  _130
REMARK   49  A    between atoms: _135  and  _137
REMARK   50  A    between atoms: _137  and  _138
REMARK   51  A    between atoms: _137  and  _140
REMARK   52  A    between atoms: _140  and  _141
REMARK   53  A    between atoms: _146  and  _148
REMARK   54  A    between atoms: _148  and  _149
REMARK   55  A    between atoms: _148  and  _151
REMARK   56  A    between atoms: _151  and  _152
REMARK   57  A    between atoms: _154  and  _156
REMARK   58  A    between atoms: _156  and  _157
REMARK   59  A    between atoms: _156  and  _159
REMARK   60  A    between atoms: _159  and  _160
REMARK   61  A    between atoms: _163  and  _165
REMARK   62  A    between atoms: _165  and  _166
REMARK   63  A    between atoms: _165  and  _168
REMARK   64  A    between atoms: _168  and  _169
REMARK   65  A    between atoms: _177  and  _180
REMARK   66  A    between atoms: _180  and  _181
REMARK   67  A    between atoms: _185  and  _188
REMARK   68  A    between atoms: _188  and  _189
REMARK   69  A    between atoms: _196  and  _199
REMARK   70  A    between atoms: _199  and  _200
REMARK   71  A    between atoms: _200  and  _201
REMARK   72  A    between atoms: _208  and  _211
REMARK   73  A    between atoms: _211  and  _212
REMARK   74  A    between atoms: _224  and  _225
REMARK   75  A    between atoms: _231  and  _233
REMARK   76  A    between atoms: _233  and  _234
REMARK   77  A    between atoms: _237  and  _239
REMARK   78  A    between atoms: _239  and  _240
REMARK   79  A    between atoms: _239  and  _242
REMARK   80  A    between atoms: _242  and  _243
REMARK   81  A    between atoms: _246  and  _248
REMARK   82  A    between atoms: _248  and  _249
REMARK   83  A    between atoms: _251  and  _253
REMARK   84  A    between atoms: _253  and  _254
REMARK   85  A    between atoms: _257  and  _259
REMARK   86  A    between atoms: _259  and  _260
REMARK   87  A    between atoms: _259  and  _262
REMARK   88  A    between atoms: _262  and  _263
REMARK   89  A    between atoms: _263  and  _264
REMARK   90  A    between atoms: _269  and  _271
REMARK   91  A    between atoms: _271  and  _272
REMARK   92  A    between atoms: _271  and  _274
REMARK   93  A    between atoms: _274  and  _275
REMARK   94  A    between atoms: _275  and  _276
REMARK   95  A    between atoms: _276  and  _277
REMARK   96  A    between atoms: _286  and  _288
REMARK   97  A    between atoms: _288  and  _289
REMARK   98  A    between atoms: _288  and  _291
REMARK   99  A    between atoms: _291  and  _292
REMARK  100  A    between atoms: _295  and  _297
REMARK  101  A    between atoms: _297  and  _298
REMARK  102  A    between atoms: _301  and  _303
REMARK  103  A    between atoms: _303  and  _304
REMARK                            x       y       z     vdW  Elec       q    Type
REMARK                         _______ _______ _______ _____ _____    ______ ____
ROOT
ATOM      1  O   HOH     1     -42.958 -21.884  -5.118  0.00  0.00    +0.000 OA
ENDROOT
TORSDOF 0
REMARK  Name = ../refined-set-2016/3n35/3n35_pocket.pdb
REMARK  103 active torsions:
REMARK  status: ('A' for Active; 'I' for Inactive)
REMARK    1  A    between atoms: _1  and  _3
REMARK    2  A    between atoms: _3  and  _4
REMARK    3  A    between atoms: _3  and  _6
REMARK    4  A    between atoms: _6  and  _7
REMARK    5  A    between atoms: _17  and  _19
REMARK    6  A    between atoms: _19  and  _20
REMARK    7  A    between atoms: _19  and  _22
REMARK    8  A    between atoms: _22  and  _23
REMARK    9  A    between atoms: _27  and  _28
REMARK   10  A    between atoms: _33  and  _35
REMARK   11  A    between atoms: _35  and  _36
REMARK   12  A    between atoms: _35  and  _38
REMARK   13  A    between atoms: _38  and  _39
REMARK   14  A    between atoms: _43  and  _44
REMARK   15  A    between atoms: _49  and  _51
REMARK   16  A    between atoms: _51  and  _52
REMARK   17  A    between atoms: _55  and  _57
REMARK   18  A    between atoms: _57  and  _58
REMARK   19  A    between atoms: _57  and  _60
REMARK   20  A    between atoms: _60  and  _61
REMARK   21  A    between atoms: _64  and  _66
REMARK   22  A    between atoms: _66  and  _67
REMARK   23  A    between atoms: _69  and  _71
REMARK   24  A    between atoms: _71  and  _72
REMARK   25  A    between atoms: _71  and  _74
REMARK   26  A    between atoms: _74  and  _75
REMARK   27  A    between atoms: _75  and  _76
REMARK   28  A    between atoms: _81  and  _83
REMARK   29  A    between atoms: _83  and  _84
REMARK   30  A    between atoms: _86  and  _88
REMARK   31  A    between atoms: _88  and  _89
REMARK   32  A    between atoms: _91  and  _93
REMARK   33  A    between atoms: _93  and  _94
REMARK   34  A    between atoms: _96  and  _98
REMARK   35  A    between atoms: _98  and  _99
REMARK   36  A    between atoms: _98  and  _101
REMARK   37  A    between atoms: _101  and  _102
REMARK   38  A    between atoms: _107  and  _108
REMARK   39  A    between atoms: _110  and  _112
REMARK   40  A    between atoms: _112  and  _113
REMARK   41  A    between atoms: _112  and  _115
REMARK   42  A    between atoms: _115  and  _116
REMARK   43  A    between atoms: _119  and  _121
REMARK   44  A    between atoms: _121  and  _122
REMARK   45  A    between atoms: _124  and  _126
REMARK   46  A    between atoms: _126  and  _127
REMARK   47  A    between atoms: _126  and  _129
REMARK   48  A    between atoms: _129  and  _130
REMARK   49  A    between atoms: _135  and  _137
REMARK   50  A    between atoms: _137  and  _138
REMARK   51  A    between atoms: _137  and  _140
REMARK   52  A    between atoms: _140  and  _141
REMARK   53  A    between atoms: _146  and  _148
REMARK   54  A    between atoms: _148  and  _149
REMARK   55  A    between atoms: _148  and  _151
REMARK   56  A    between atoms: _151  and  _152
REMARK   57  A    between atoms: _154  and  _156
REMARK   58  A    between atoms: _156  and  _157
REMARK   59  A    between atoms: _156  and  _159
REMARK   60  A    between atoms: _159  and  _160
REMARK   61  A    between atoms: _163  and  _165
REMARK   62  A    between atoms: _165  and  _166
REMARK   63  A    between atoms: _165  and  _168
REMARK   64  A    between atoms: _168  and  _169
REMARK   65  A    between atoms: _177  and  _180
REMARK   66  A    between atoms: _180  and  _181
REMARK   67  A    between atoms: _185  and  _188
REMARK   68  A    between atoms: _188  and  _189
REMARK   69  A    between atoms: _196  and  _199
REMARK   70  A    between atoms: _199  and  _200
REMARK   71  A    between atoms: _200  and  _201
REMARK   72  A    between atoms: _208  and  _211
REMARK   73  A    between atoms: _211  and  _212
REMARK   74  A    between atoms: _224  and  _225
REMARK   75  A    between atoms: _231  and  _233
REMARK   76  A    between atoms: _233  and  _234
REMARK   77  A    between atoms: _237  and  _239
REMARK   78  A    between atoms: _239  and  _240
REMARK   79  A    between atoms: _239  and  _242
REMARK   80  A    between atoms: _242  and  _243
REMARK   81  A    between atoms: _246  and  _248
REMARK   82  A    between atoms: _248  and  _249
REMARK   83  A    between atoms: _251  and  _253
REMARK   84  A    between atoms: _253  and  _254
REMARK   85  A    between atoms: _257  and  _259
REMARK   86  A    between atoms: _259  and  _260
REMARK   87  A    between atoms: _259  and  _262
REMARK   88  A    between atoms: _262  and  _263
REMARK   89  A    between atoms: _263  and  _264
REMARK   90  A    between atoms: _269  and  _271
REMARK   91  A    between atoms: _271  and  _272
REMARK   92  A    between atoms: _271  and  _274
REMARK   93  A    between atoms: _274  and  _275
REMARK   94  A    between atoms: _275  and  _276
REMARK   95  A    between atoms: _276  and  _277
REMARK   96  A    between atoms: _286  and  _288
REMARK   97  A    between atoms: _288  and  _289
REMARK   98  A    between atoms: _288  and  _291
REMARK   99  A    between atoms: _291  and  _292
REMARK  100  A    between atoms: _295  and  _297
REMARK  101  A    between atoms: _297  and  _298
REMARK  102  A    between atoms: _301  and  _303
REMARK  103  A    between atoms: _303  and  _304
REMARK                            x       y       z     vdW  Elec       q    Type
REMARK                         _______ _______ _______ _____ _____    ______ ____
ROOT
ATOM      1  O   HOH     1     -33.518 -30.666  -7.862  0.00  0.00    +0.000 OA
ENDROOT
TORSDOF 0
REMARK  Name = ../refined-set-2016/3n35/3n35_pocket.pdb
REMARK  103 active torsions:
REMARK  status: ('A' for Active; 'I' for Inactive)
REMARK    1  A    between atoms: _1  and  _3
REMARK    2  A    between atoms: _3  and  _4
REMARK    3  A    between atoms: _3  and  _6
REMARK    4  A    between atoms: _6  and  _7
REMARK    5  A    between atoms: _17  and  _19
REMARK    6  A    between atoms: _19  and  _20
REMARK    7  A    between atoms: _19  and  _22
REMARK    8  A    between atoms: _22  and  _23
REMARK    9  A    between atoms: _27  and  _28
REMARK   10  A    between atoms: _33  and  _35
REMARK   11  A    between atoms: _35  and  _36
REMARK   12  A    between atoms: _35  and  _38
REMARK   13  A    between atoms: _38  and  _39
REMARK   14  A    between atoms: _43  and  _44
REMARK   15  A    between atoms: _49  and  _51
REMARK   16  A    between atoms: _51  and  _52
REMARK   17  A    between atoms: _55  and  _57
REMARK   18  A    between atoms: _57  and  _58
REMARK   19  A    between atoms: _57  and  _60
REMARK   20  A    between atoms: _60  and  _61
REMARK   21  A    between atoms: _64  and  _66
REMARK   22  A    between atoms: _66  and  _67
REMARK   23  A    between atoms: _69  and  _71
REMARK   24  A    between atoms: _71  and  _72
REMARK   25  A    between atoms: _71  and  _74
REMARK   26  A    between atoms: _74  and  _75
REMARK   27  A    between atoms: _75  and  _76
REMARK   28  A    between atoms: _81  and  _83
REMARK   29  A    between atoms: _83  and  _84
REMARK   30  A    between atoms: _86  and  _88
REMARK   31  A    between atoms: _88  and  _89
REMARK   32  A    between atoms: _91  and  _93
REMARK   33  A    between atoms: _93  and  _94
REMARK   34  A    between atoms: _96  and  _98
REMARK   35  A    between atoms: _98  and  _99
REMARK   36  A    between atoms: _98  and  _101
REMARK   37  A    between atoms: _101  and  _102
REMARK   38  A    between atoms: _107  and  _108
REMARK   39  A    between atoms: _110  and  _112
REMARK   40  A    between atoms: _112  and  _113
REMARK   41  A    between atoms: _112  and  _115
REMARK   42  A    between atoms: _115  and  _116
REMARK   43  A    between atoms: _119  and  _121
REMARK   44  A    between atoms: _121  and  _122
REMARK   45  A    between atoms: _124  and  _126
REMARK   46  A    between atoms: _126  and  _127
REMARK   47  A    between atoms: _126  and  _129
REMARK   48  A    between atoms: _129  and  _130
REMARK   49  A    between atoms: _135  and  _137
REMARK   50  A    between atoms: _137  and  _138
REMARK   51  A    between atoms: _137  and  _140
REMARK   52  A    between atoms: _140  and  _141
REMARK   53  A    between atoms: _146  and  _148
REMARK   54  A    between atoms: _148  and  _149
REMARK   55  A    between atoms: _148  and  _151
REMARK   56  A    between atoms: _151  and  _152
REMARK   57  A    between atoms: _154  and  _156
REMARK   58  A    between atoms: _156  and  _157
REMARK   59  A    between atoms: _156  and  _159
REMARK   60  A    between atoms: _159  and  _160
REMARK   61  A    between atoms: _163  and  _165
REMARK   62  A    between atoms: _165  and  _166
REMARK   63  A    between atoms: _165  and  _168
REMARK   64  A    between atoms: _168  and  _169
REMARK   65  A    between atoms: _177  and  _180
REMARK   66  A    between atoms: _180  and  _181
REMARK   67  A    between atoms: _185  and  _188
REMARK   68  A    between atoms: _188  and  _189
REMARK   69  A    between atoms: _196  and  _199
REMARK   70  A    between atoms: _199  and  _200
REMARK   71  A    between atoms: _200  and  _201
REMARK   72  A    between atoms: _208  and  _211
REMARK   73  A    between atoms: _211  and  _212
REMARK   74  A    between atoms: _224  and  _225
REMARK   75  A    between atoms: _231  and  _233
REMARK   76  A    between atoms: _233  and  _234
REMARK   77  A    between atoms: _237  and  _239
REMARK   78  A    between atoms: _239  and  _240
REMARK   79  A    between atoms: _239  and  _242
REMARK   80  A    between atoms: _242  and  _243
REMARK   81  A    between atoms: _246  and  _248
REMARK   82  A    between atoms: _248  and  _249
REMARK   83  A    between atoms: _251  and  _253
REMARK   84  A    between atoms: _253  and  _254
REMARK   85  A    between atoms: _257  and  _259
REMARK   86  A    between atoms: _259  and  _260
REMARK   87  A    between atoms: _259  and  _262
REMARK   88  A    between atoms: _262  and  _263
REMARK   89  A    between atoms: _263  and  _264
REMARK   90  A    between atoms: _269  and  _271
REMARK   91  A    between atoms: _271  and  _272
REMARK   92  A    between atoms: _271  and  _274
REMARK   93  A    between atoms: _274  and  _275
REMARK   94  A    between atoms: _275  and  _276
REMARK   95  A    between atoms: _276  and  _277
REMARK   96  A    between atoms: _286  and  _288
REMARK   97  A    between atoms: _288  and  _289
REMARK   98  A    between atoms: _288  and  _291
REMARK   99  A    between atoms: _291  and  _292
REMARK  100  A    between atoms: _295  and  _297
REMARK  101  A    between atoms: _297  and  _298
REMARK  102  A    between atoms: _301  and  _303
REMARK  103  A    between atoms: _303  and  _304
REMARK                            x       y       z     vdW  Elec       q    Type
REMARK                         _______ _______ _______ _____ _____    ______ ____
ROOT
ATOM      1  O   HOH     1     -34.126 -24.548 -10.438  0.00  0.00    +0.000 OA
ENDROOT
TORSDOF 0
REMARK  Name = ../refined-set-2016/3n35/3n35_pocket.pdb
REMARK  103 active torsions:
REMARK  status: ('A' for Active; 'I' for Inactive)
REMARK    1  A    between atoms: _1  and  _3
REMARK    2  A    between atoms: _3  and  _4
REMARK    3  A    between atoms: _3  and  _6
REMARK    4  A    between atoms: _6  and  _7
REMARK    5  A    between atoms: _17  and  _19
REMARK    6  A    between atoms: _19  and  _20
REMARK    7  A    between atoms: _19  and  _22
REMARK    8  A    between atoms: _22  and  _23
REMARK    9  A    between atoms: _27  and  _28
REMARK   10  A    between atoms: _33  and  _35
REMARK   11  A    between atoms: _35  and  _36
REMARK   12  A    between atoms: _35  and  _38
REMARK   13  A    between atoms: _38  and  _39
REMARK   14  A    between atoms: _43  and  _44
REMARK   15  A    between atoms: _49  and  _51
REMARK   16  A    between atoms: _51  and  _52
REMARK   17  A    between atoms: _55  and  _57
REMARK   18  A    between atoms: _57  and  _58
REMARK   19  A    between atoms: _57  and  _60
REMARK   20  A    between atoms: _60  and  _61
REMARK   21  A    between atoms: _64  and  _66
REMARK   22  A    between atoms: _66  and  _67
REMARK   23  A    between atoms: _69  and  _71
REMARK   24  A    between atoms: _71  and  _72
REMARK   25  A    between atoms: _71  and  _74
REMARK   26  A    between atoms: _74  and  _75
REMARK   27  A    between atoms: _75  and  _76
REMARK   28  A    between atoms: _81  and  _83
REMARK   29  A    between atoms: _83  and  _84
REMARK   30  A    between atoms: _86  and  _88
REMARK   31  A    between atoms: _88  and  _89
REMARK   32  A    between atoms: _91  and  _93
REMARK   33  A    between atoms: _93  and  _94
REMARK   34  A    between atoms: _96  and  _98
REMARK   35  A    between atoms: _98  and  _99
REMARK   36  A    between atoms: _98  and  _101
REMARK   37  A    between atoms: _101  and  _102
REMARK   38  A    between atoms: _107  and  _108
REMARK   39  A    between atoms: _110  and  _112
REMARK   40  A    between atoms: _112  and  _113
REMARK   41  A    between atoms: _112  and  _115
REMARK   42  A    between atoms: _115  and  _116
REMARK   43  A    between atoms: _119  and  _121
REMARK   44  A    between atoms: _121  and  _122
REMARK   45  A    between atoms: _124  and  _126
REMARK   46  A    between atoms: _126  and  _127
REMARK   47  A    between atoms: _126  and  _129
REMARK   48  A    between atoms: _129  and  _130
REMARK   49  A    between atoms: _135  and  _137
REMARK   50  A    between atoms: _137  and  _138
REMARK   51  A    between atoms: _137  and  _140
REMARK   52  A    between atoms: _140  and  _141
REMARK   53  A    between atoms: _146  and  _148
REMARK   54  A    between atoms: _148  and  _149
REMARK   55  A    between atoms: _148  and  _151
REMARK   56  A    between atoms: _151  and  _152
REMARK   57  A    between atoms: _154  and  _156
REMARK   58  A    between atoms: _156  and  _157
REMARK   59  A    between atoms: _156  and  _159
REMARK   60  A    between atoms: _159  and  _160
REMARK   61  A    between atoms: _163  and  _165
REMARK   62  A    between atoms: _165  and  _166
REMARK   63  A    between atoms: _165  and  _168
REMARK   64  A    between atoms: _168  and  _169
REMARK   65  A    between atoms: _177  and  _180
REMARK   66  A    between atoms: _180  and  _181
REMARK   67  A    between atoms: _185  and  _188
REMARK   68  A    between atoms: _188  and  _189
REMARK   69  A    between atoms: _196  and  _199
REMARK   70  A    between atoms: _199  and  _200
REMARK   71  A    between atoms: _200  and  _201
REMARK   72  A    between atoms: _208  and  _211
REMARK   73  A    between atoms: _211  and  _212
REMARK   74  A    between atoms: _224  and  _225
REMARK   75  A    between atoms: _231  and  _233
REMARK   76  A    between atoms: _233  and  _234
REMARK   77  A    between atoms: _237  and  _239
REMARK   78  A    between atoms: _239  and  _240
REMARK   79  A    between atoms: _239  and  _242
REMARK   80  A    between atoms: _242  and  _243
REMARK   81  A    between atoms: _246  and  _248
REMARK   82  A    between atoms: _248  and  _249
REMARK   83  A    between atoms: _251  and  _253
REMARK   84  A    between atoms: _253  and  _254
REMARK   85  A    between atoms: _257  and  _259
REMARK   86  A    between atoms: _259  and  _260
REMARK   87  A    between atoms: _259  and  _262
REMARK   88  A    between atoms: _262  and  _263
REMARK   89  A    between atoms: _263  and  _264
REMARK   90  A    between atoms: _269  and  _271
REMARK   91  A    between atoms: _271  and  _272
REMARK   92  A    between atoms: _271  and  _274
REMARK   93  A    between atoms: _274  and  _275
REMARK   94  A    between atoms: _275  and  _276
REMARK   95  A    between atoms: _276  and  _277
REMARK   96  A    between atoms: _286  and  _288
REMARK   97  A    between atoms: _288  and  _289
REMARK   98  A    between atoms: _288  and  _291
REMARK   99  A    between atoms: _291  and  _292
REMARK  100  A    between atoms: _295  and  _297
REMARK  101  A    between atoms: _297  and  _298
REMARK  102  A    between atoms: _301  and  _303
REMARK  103  A    between atoms: _303  and  _304
REMARK                            x       y       z     vdW  Elec       q    Type
REMARK                         _______ _______ _______ _____ _____    ______ ____
ROOT
ATOM      1  O   HOH     1     -37.266 -26.730   2.795  0.00  0.00    +0.000 OA
ENDROOT
TORSDOF 0
REMARK  Name = ../refined-set-2016/3n35/3n35_pocket.pdb
REMARK  103 active torsions:
REMARK  status: ('A' for Active; 'I' for Inactive)
REMARK    1  A    between atoms: _1  and  _3
REMARK    2  A    between atoms: _3  and  _4
REMARK    3  A    between atoms: _3  and  _6
REMARK    4  A    between atoms: _6  and  _7
REMARK    5  A    between atoms: _17  and  _19
REMARK    6  A    between atoms: _19  and  _20
REMARK    7  A    between atoms: _19  and  _22
REMARK    8  A    between atoms: _22  and  _23
REMARK    9  A    between atoms: _27  and  _28
REMARK   10  A    between atoms: _33  and  _35
REMARK   11  A    between atoms: _35  and  _36
REMARK   12  A    between atoms: _35  and  _38
REMARK   13  A    between atoms: _38  and  _39
REMARK   14  A    between atoms: _43  and  _44
REMARK   15  A    between atoms: _49  and  _51
REMARK   16  A    between atoms: _51  and  _52
REMARK   17  A    between atoms: _55  and  _57
REMARK   18  A    between atoms: _57  and  _58
REMARK   19  A    between atoms: _57  and  _60
REMARK   20  A    between atoms: _60  and  _61
REMARK   21  A    between atoms: _64  and  _66
REMARK   22  A    between atoms: _66  and  _67
REMARK   23  A    between atoms: _69  and  _71
REMARK   24  A    between atoms: _71  and  _72
REMARK   25  A    between atoms: _71  and  _74
REMARK   26  A    between atoms: _74  and  _75
REMARK   27  A    between atoms: _75  and  _76
REMARK   28  A    between atoms: _81  and  _83
REMARK   29  A    between atoms: _83  and  _84
REMARK   30  A    between atoms: _86  and  _88
REMARK   31  A    between atoms: _88  and  _89
REMARK   32  A    between atoms: _91  and  _93
REMARK   33  A    between atoms: _93  and  _94
REMARK   34  A    between atoms: _96  and  _98
REMARK   35  A    between atoms: _98  and  _99
REMARK   36  A    between atoms: _98  and  _101
REMARK   37  A    between atoms: _101  and  _102
REMARK   38  A    between atoms: _107  and  _108
REMARK   39  A    between atoms: _110  and  _112
REMARK   40  A    between atoms: _112  and  _113
REMARK   41  A    between atoms: _112  and  _115
REMARK   42  A    between atoms: _115  and  _116
REMARK   43  A    between atoms: _119  and  _121
REMARK   44  A    between atoms: _121  and  _122
REMARK   45  A    between atoms: _124  and  _126
REMARK   46  A    between atoms: _126  and  _127
REMARK   47  A    between atoms: _126  and  _129
REMARK   48  A    between atoms: _129  and  _130
REMARK   49  A    between atoms: _135  and  _137
REMARK   50  A    between atoms: _137  and  _138
REMARK   51  A    between atoms: _137  and  _140
REMARK   52  A    between atoms: _140  and  _141
REMARK   53  A    between atoms: _146  and  _148
REMARK   54  A    between atoms: _148  and  _149
REMARK   55  A    between atoms: _148  and  _151
REMARK   56  A    between atoms: _151  and  _152
REMARK   57  A    between atoms: _154  and  _156
REMARK   58  A    between atoms: _156  and  _157
REMARK   59  A    between atoms: _156  and  _159
REMARK   60  A    between atoms: _159  and  _160
REMARK   61  A    between atoms: _163  and  _165
REMARK   62  A    between atoms: _165  and  _166
REMARK   63  A    between atoms: _165  and  _168
REMARK   64  A    between atoms: _168  and  _169
REMARK   65  A    between atoms: _177  and  _180
REMARK   66  A    between atoms: _180  and  _181
REMARK   67  A    between atoms: _185  and  _188
REMARK   68  A    between atoms: _188  and  _189
REMARK   69  A    between atoms: _196  and  _199
REMARK   70  A    between atoms: _199  and  _200
REMARK   71  A    between atoms: _200  and  _201
REMARK   72  A    between atoms: _208  and  _211
REMARK   73  A    between atoms: _211  and  _212
REMARK   74  A    between atoms: _224  and  _225
REMARK   75  A    between atoms: _231  and  _233
REMARK   76  A    between atoms: _233  and  _234
REMARK   77  A    between atoms: _237  and  _239
REMARK   78  A    between atoms: _239  and  _240
REMARK   79  A    between atoms: _239  and  _242
REMARK   80  A    between atoms: _242  and  _243
REMARK   81  A    between atoms: _246  and  _248
REMARK   82  A    between atoms: _248  and  _249
REMARK   83  A    between atoms: _251  and  _253
REMARK   84  A    between atoms: _253  and  _254
REMARK   85  A    between atoms: _257  and  _259
REMARK   86  A    between atoms: _259  and  _260
REMARK   87  A    between atoms: _259  and  _262
REMARK   88  A    between atoms: _262  and  _263
REMARK   89  A    between atoms: _263  and  _264
REMARK   90  A    between atoms: _269  and  _271
REMARK   91  A    between atoms: _271  and  _272
REMARK   92  A    between atoms: _271  and  _274
REMARK   93  A    between atoms: _274  and  _275
REMARK   94  A    between atoms: _275  and  _276
REMARK   95  A    between atoms: _276  and  _277
REMARK   96  A    between atoms: _286  and  _288
REMARK   97  A    between atoms: _288  and  _289
REMARK   98  A    between atoms: _288  and  _291
REMARK   99  A    between atoms: _291  and  _292
REMARK  100  A    between atoms: _295  and  _297
REMARK  101  A    between atoms: _297  and  _298
REMARK  102  A    between atoms: _301  and  _303
REMARK  103  A    between atoms: _303  and  _304
REMARK                            x       y       z     vdW  Elec       q    Type
REMARK                         _______ _______ _______ _____ _____    ______ ____
ROOT
ATOM      1  O   HOH     1     -36.789 -25.369 -11.852  0.00  0.00    +0.000 OA
ENDROOT
TORSDOF 0
REMARK  Name = ../refined-set-2016/3n35/3n35_pocket.pdb
REMARK  103 active torsions:
REMARK  status: ('A' for Active; 'I' for Inactive)
REMARK    1  A    between atoms: _1  and  _3
REMARK    2  A    between atoms: _3  and  _4
REMARK    3  A    between atoms: _3  and  _6
REMARK    4  A    between atoms: _6  and  _7
REMARK    5  A    between atoms: _17  and  _19
REMARK    6  A    between atoms: _19  and  _20
REMARK    7  A    between atoms: _19  and  _22
REMARK    8  A    between atoms: _22  and  _23
REMARK    9  A    between atoms: _27  and  _28
REMARK   10  A    between atoms: _33  and  _35
REMARK   11  A    between atoms: _35  and  _36
REMARK   12  A    between atoms: _35  and  _38
REMARK   13  A    between atoms: _38  and  _39
REMARK   14  A    between atoms: _43  and  _44
REMARK   15  A    between atoms: _49  and  _51
REMARK   16  A    between atoms: _51  and  _52
REMARK   17  A    between atoms: _55  and  _57
REMARK   18  A    between atoms: _57  and  _58
REMARK   19  A    between atoms: _57  and  _60
REMARK   20  A    between atoms: _60  and  _61
REMARK   21  A    between atoms: _64  and  _66
REMARK   22  A    between atoms: _66  and  _67
REMARK   23  A    between atoms: _69  and  _71
REMARK   24  A    between atoms: _71  and  _72
REMARK   25  A    between atoms: _71  and  _74
REMARK   26  A    between atoms: _74  and  _75
REMARK   27  A    between atoms: _75  and  _76
REMARK   28  A    between atoms: _81  and  _83
REMARK   29  A    between atoms: _83  and  _84
REMARK   30  A    between atoms: _86  and  _88
REMARK   31  A    between atoms: _88  and  _89
REMARK   32  A    between atoms: _91  and  _93
REMARK   33  A    between atoms: _93  and  _94
REMARK   34  A    between atoms: _96  and  _98
REMARK   35  A    between atoms: _98  and  _99
REMARK   36  A    between atoms: _98  and  _101
REMARK   37  A    between atoms: _101  and  _102
REMARK   38  A    between atoms: _107  and  _108
REMARK   39  A    between atoms: _110  and  _112
REMARK   40  A    between atoms: _112  and  _113
REMARK   41  A    between atoms: _112  and  _115
REMARK   42  A    between atoms: _115  and  _116
REMARK   43  A    between atoms: _119  and  _121
REMARK   44  A    between atoms: _121  and  _122
REMARK   45  A    between atoms: _124  and  _126
REMARK   46  A    between atoms: _126  and  _127
REMARK   47  A    between atoms: _126  and  _129
REMARK   48  A    between atoms: _129  and  _130
REMARK   49  A    between atoms: _135  and  _137
REMARK   50  A    between atoms: _137  and  _138
REMARK   51  A    between atoms: _137  and  _140
REMARK   52  A    between atoms: _140  and  _141
REMARK   53  A    between atoms: _146  and  _148
REMARK   54  A    between atoms: _148  and  _149
REMARK   55  A    between atoms: _148  and  _151
REMARK   56  A    between atoms: _151  and  _152
REMARK   57  A    between atoms: _154  and  _156
REMARK   58  A    between atoms: _156  and  _157
REMARK   59  A    between atoms: _156  and  _159
REMARK   60  A    between atoms: _159  and  _160
REMARK   61  A    between atoms: _163  and  _165
REMARK   62  A    between atoms: _165  and  _166
REMARK   63  A    between atoms: _165  and  _168
REMARK   64  A    between atoms: _168  and  _169
REMARK   65  A    between atoms: _177  and  _180
REMARK   66  A    between atoms: _180  and  _181
REMARK   67  A    between atoms: _185  and  _188
REMARK   68  A    between atoms: _188  and  _189
REMARK   69  A    between atoms: _196  and  _199
REMARK   70  A    between atoms: _199  and  _200
REMARK   71  A    between atoms: _200  and  _201
REMARK   72  A    between atoms: _208  and  _211
REMARK   73  A    between atoms: _211  and  _212
REMARK   74  A    between atoms: _224  and  _225
REMARK   75  A    between atoms: _231  and  _233
REMARK   76  A    between atoms: _233  and  _234
REMARK   77  A    between atoms: _237  and  _239
REMARK   78  A    between atoms: _239  and  _240
REMARK   79  A    between atoms: _239  and  _242
REMARK   80  A    between atoms: _242  and  _243
REMARK   81  A    between atoms: _246  and  _248
REMARK   82  A    between atoms: _248  and  _249
REMARK   83  A    between atoms: _251  and  _253
REMARK   84  A    between atoms: _253  and  _254
REMARK   85  A    between atoms: _257  and  _259
REMARK   86  A    between atoms: _259  and  _260
REMARK   87  A    between atoms: _259  and  _262
REMARK   88  A    between atoms: _262  and  _263
REMARK   89  A    between atoms: _263  and  _264
REMARK   90  A    between atoms: _269  and  _271
REMARK   91  A    between atoms: _271  and  _272
REMARK   92  A    between atoms: _271  and  _274
REMARK   93  A    between atoms: _274  and  _275
REMARK   94  A    between atoms: _275  and  _276
REMARK   95  A    between atoms: _276  and  _277
REMARK   96  A    between atoms: _286  and  _288
REMARK   97  A    between atoms: _288  and  _289
REMARK   98  A    between atoms: _288  and  _291
REMARK   99  A    between atoms: _291  and  _292
REMARK  100  A    between atoms: _295  and  _297
REMARK  101  A    between atoms: _297  and  _298
REMARK  102  A    between atoms: _301  and  _303
REMARK  103  A    between atoms: _303  and  _304
REMARK                            x       y       z     vdW  Elec       q    Type
REMARK                         _______ _______ _______ _____ _____    ______ ____
ROOT
ATOM      1  O   HOH     1     -30.490 -35.437  -5.944  0.00  0.00    +0.000 OA
ENDROOT
TORSDOF 0
REMARK  Name = ../refined-set-2016/3n35/3n35_pocket.pdb
REMARK  103 active torsions:
REMARK  status: ('A' for Active; 'I' for Inactive)
REMARK    1  A    between atoms: _1  and  _3
REMARK    2  A    between atoms: _3  and  _4
REMARK    3  A    between atoms: _3  and  _6
REMARK    4  A    between atoms: _6  and  _7
REMARK    5  A    between atoms: _17  and  _19
REMARK    6  A    between atoms: _19  and  _20
REMARK    7  A    between atoms: _19  and  _22
REMARK    8  A    between atoms: _22  and  _23
REMARK    9  A    between atoms: _27  and  _28
REMARK   10  A    between atoms: _33  and  _35
REMARK   11  A    between atoms: _35  and  _36
REMARK   12  A    between atoms: _35  and  _38
REMARK   13  A    between atoms: _38  and  _39
REMARK   14  A    between atoms: _43  and  _44
REMARK   15  A    between atoms: _49  and  _51
REMARK   16  A    between atoms: _51  and  _52
REMARK   17  A    between atoms: _55  and  _57
REMARK   18  A    between atoms: _57  and  _58
REMARK   19  A    between atoms: _57  and  _60
REMARK   20  A    between atoms: _60  and  _61
REMARK   21  A    between atoms: _64  and  _66
REMARK   22  A    between atoms: _66  and  _67
REMARK   23  A    between atoms: _69  and  _71
REMARK   24  A    between atoms: _71  and  _72
REMARK   25  A    between atoms: _71  and  _74
REMARK   26  A    between atoms: _74  and  _75
REMARK   27  A    between atoms: _75  and  _76
REMARK   28  A    between atoms: _81  and  _83
REMARK   29  A    between atoms: _83  and  _84
REMARK   30  A    between atoms: _86  and  _88
REMARK   31  A    between atoms: _88  and  _89
REMARK   32  A    between atoms: _91  and  _93
REMARK   33  A    between atoms: _93  and  _94
REMARK   34  A    between atoms: _96  and  _98
REMARK   35  A    between atoms: _98  and  _99
REMARK   36  A    between atoms: _98  and  _101
REMARK   37  A    between atoms: _101  and  _102
REMARK   38  A    between atoms: _107  and  _108
REMARK   39  A    between atoms: _110  and  _112
REMARK   40  A    between atoms: _112  and  _113
REMARK   41  A    between atoms: _112  and  _115
REMARK   42  A    between atoms: _115  and  _116
REMARK   43  A    between atoms: _119  and  _121
REMARK   44  A    between atoms: _121  and  _122
REMARK   45  A    between atoms: _124  and  _126
REMARK   46  A    between atoms: _126  and  _127
REMARK   47  A    between atoms: _126  and  _129
REMARK   48  A    between atoms: _129  and  _130
REMARK   49  A    between atoms: _135  and  _137
REMARK   50  A    between atoms: _137  and  _138
REMARK   51  A    between atoms: _137  and  _140
REMARK   52  A    between atoms: _140  and  _141
REMARK   53  A    between atoms: _146  and  _148
REMARK   54  A    between atoms: _148  and  _149
REMARK   55  A    between atoms: _148  and  _151
REMARK   56  A    between atoms: _151  and  _152
REMARK   57  A    between atoms: _154  and  _156
REMARK   58  A    between atoms: _156  and  _157
REMARK   59  A    between atoms: _156  and  _159
REMARK   60  A    between atoms: _159  and  _160
REMARK   61  A    between atoms: _163  and  _165
REMARK   62  A    between atoms: _165  and  _166
REMARK   63  A    between atoms: _165  and  _168
REMARK   64  A    between atoms: _168  and  _169
REMARK   65  A    between atoms: _177  and  _180
REMARK   66  A    between atoms: _180  and  _181
REMARK   67  A    between atoms: _185  and  _188
REMARK   68  A    between atoms: _188  and  _189
REMARK   69  A    between atoms: _196  and  _199
REMARK   70  A    between atoms: _199  and  _200
REMARK   71  A    between atoms: _200  and  _201
REMARK   72  A    between atoms: _208  and  _211
REMARK   73  A    between atoms: _211  and  _212
REMARK   74  A    between atoms: _224  and  _225
REMARK   75  A    between atoms: _231  and  _233
REMARK   76  A    between atoms: _233  and  _234
REMARK   77  A    between atoms: _237  and  _239
REMARK   78  A    between atoms: _239  and  _240
REMARK   79  A    between atoms: _239  and  _242
REMARK   80  A    between atoms: _242  and  _243
REMARK   81  A    between atoms: _246  and  _248
REMARK   82  A    between atoms: _248  and  _249
REMARK   83  A    between atoms: _251  and  _253
REMARK   84  A    between atoms: _253  and  _254
REMARK   85  A    between atoms: _257  and  _259
REMARK   86  A    between atoms: _259  and  _260
REMARK   87  A    between atoms: _259  and  _262
REMARK   88  A    between atoms: _262  and  _263
REMARK   89  A    between atoms: _263  and  _264
REMARK   90  A    between atoms: _269  and  _271
REMARK   91  A    between atoms: _271  and  _272
REMARK   92  A    between atoms: _271  and  _274
REMARK   93  A    between atoms: _274  and  _275
REMARK   94  A    between atoms: _275  and  _276
REMARK   95  A    between atoms: _276  and  _277
REMARK   96  A    between atoms: _286  and  _288
REMARK   97  A    between atoms: _288  and  _289
REMARK   98  A    between atoms: _288  and  _291
REMARK   99  A    between atoms: _291  and  _292
REMARK  100  A    between atoms: _295  and  _297
REMARK  101  A    between atoms: _297  and  _298
REMARK  102  A    between atoms: _301  and  _303
REMARK  103  A    between atoms: _303  and  _304
REMARK                            x       y       z     vdW  Elec       q    Type
REMARK                         _______ _______ _______ _____ _____    ______ ____
ROOT
ATOM      1  O   HOH     1     -44.277 -29.091  -7.901  0.00  0.00    +0.000 OA
ENDROOT
TORSDOF 0
REMARK  Name = ../refined-set-2016/3n35/3n35_pocket.pdb
REMARK  103 active torsions:
REMARK  status: ('A' for Active; 'I' for Inactive)
REMARK    1  A    between atoms: _1  and  _3
REMARK    2  A    between atoms: _3  and  _4
REMARK    3  A    between atoms: _3  and  _6
REMARK    4  A    between atoms: _6  and  _7
REMARK    5  A    between atoms: _17  and  _19
REMARK    6  A    between atoms: _19  and  _20
REMARK    7  A    between atoms: _19  and  _22
REMARK    8  A    between atoms: _22  and  _23
REMARK    9  A    between atoms: _27  and  _28
REMARK   10  A    between atoms: _33  and  _35
REMARK   11  A    between atoms: _35  and  _36
REMARK   12  A    between atoms: _35  and  _38
REMARK   13  A    between atoms: _38  and  _39
REMARK   14  A    between atoms: _43  and  _44
REMARK   15  A    between atoms: _49  and  _51
REMARK   16  A    between atoms: _51  and  _52
REMARK   17  A    between atoms: _55  and  _57
REMARK   18  A    between atoms: _57  and  _58
REMARK   19  A    between atoms: _57  and  _60
REMARK   20  A    between atoms: _60  and  _61
REMARK   21  A    between atoms: _64  and  _66
REMARK   22  A    between atoms: _66  and  _67
REMARK   23  A    between atoms: _69  and  _71
REMARK   24  A    between atoms: _71  and  _72
REMARK   25  A    between atoms: _71  and  _74
REMARK   26  A    between atoms: _74  and  _75
REMARK   27  A    between atoms: _75  and  _76
REMARK   28  A    between atoms: _81  and  _83
REMARK   29  A    between atoms: _83  and  _84
REMARK   30  A    between atoms: _86  and  _88
REMARK   31  A    between atoms: _88  and  _89
REMARK   32  A    between atoms: _91  and  _93
REMARK   33  A    between atoms: _93  and  _94
REMARK   34  A    between atoms: _96  and  _98
REMARK   35  A    between atoms: _98  and  _99
REMARK   36  A    between atoms: _98  and  _101
REMARK   37  A    between atoms: _101  and  _102
REMARK   38  A    between atoms: _107  and  _108
REMARK   39  A    between atoms: _110  and  _112
REMARK   40  A    between atoms: _112  and  _113
REMARK   41  A    between atoms: _112  and  _115
REMARK   42  A    between atoms: _115  and  _116
REMARK   43  A    between atoms: _119  and  _121
REMARK   44  A    between atoms: _121  and  _122
REMARK   45  A    between atoms: _124  and  _126
REMARK   46  A    between atoms: _126  and  _127
REMARK   47  A    between atoms: _126  and  _129
REMARK   48  A    between atoms: _129  and  _130
REMARK   49  A    between atoms: _135  and  _137
REMARK   50  A    between atoms: _137  and  _138
REMARK   51  A    between atoms: _137  and  _140
REMARK   52  A    between atoms: _140  and  _141
REMARK   53  A    between atoms: _146  and  _148
REMARK   54  A    between atoms: _148  and  _149
REMARK   55  A    between atoms: _148  and  _151
REMARK   56  A    between atoms: _151  and  _152
REMARK   57  A    between atoms: _154  and  _156
REMARK   58  A    between atoms: _156  and  _157
REMARK   59  A    between atoms: _156  and  _159
REMARK   60  A    between atoms: _159  and  _160
REMARK   61  A    between atoms: _163  and  _165
REMARK   62  A    between atoms: _165  and  _166
REMARK   63  A    between atoms: _165  and  _168
REMARK   64  A    between atoms: _168  and  _169
REMARK   65  A    between atoms: _177  and  _180
REMARK   66  A    between atoms: _180  and  _181
REMARK   67  A    between atoms: _185  and  _188
REMARK   68  A    between atoms: _188  and  _189
REMARK   69  A    between atoms: _196  and  _199
REMARK   70  A    between atoms: _199  and  _200
REMARK   71  A    between atoms: _200  and  _201
REMARK   72  A    between atoms: _208  and  _211
REMARK   73  A    between atoms: _211  and  _212
REMARK   74  A    between atoms: _224  and  _225
REMARK   75  A    between atoms: _231  and  _233
REMARK   76  A    between atoms: _233  and  _234
REMARK   77  A    between atoms: _237  and  _239
REMARK   78  A    between atoms: _239  and  _240
REMARK   79  A    between atoms: _239  and  _242
REMARK   80  A    between atoms: _242  and  _243
REMARK   81  A    between atoms: _246  and  _248
REMARK   82  A    between atoms: _248  and  _249
REMARK   83  A    between atoms: _251  and  _253
REMARK   84  A    between atoms: _253  and  _254
REMARK   85  A    between atoms: _257  and  _259
REMARK   86  A    between atoms: _259  and  _260
REMARK   87  A    between atoms: _259  and  _262
REMARK   88  A    between atoms: _262  and  _263
REMARK   89  A    between atoms: _263  and  _264
REMARK   90  A    between atoms: _269  and  _271
REMARK   91  A    between atoms: _271  and  _272
REMARK   92  A    between atoms: _271  and  _274
REMARK   93  A    between atoms: _274  and  _275
REMARK   94  A    between atoms: _275  and  _276
REMARK   95  A    between atoms: _276  and  _277
REMARK   96  A    between atoms: _286  and  _288
REMARK   97  A    between atoms: _288  and  _289
REMARK   98  A    between atoms: _288  and  _291
REMARK   99  A    between atoms: _291  and  _292
REMARK  100  A    between atoms: _295  and  _297
REMARK  101  A    between atoms: _297  and  _298
REMARK  102  A    between atoms: _301  and  _303
REMARK  103  A    between atoms: _303  and  _304
REMARK                            x       y       z     vdW  Elec       q    Type
REMARK                         _______ _______ _______ _____ _____    ______ ____
ROOT
ATOM      1  O   HOH     1     -32.940 -37.122  -2.422  0.00  0.00    +0.000 OA
ENDROOT
TORSDOF 0
REMARK  Name = ../refined-set-2016/3n35/3n35_pocket.pdb
REMARK  103 active torsions:
REMARK  status: ('A' for Active; 'I' for Inactive)
REMARK    1  A    between atoms: _1  and  _3
REMARK    2  A    between atoms: _3  and  _4
REMARK    3  A    between atoms: _3  and  _6
REMARK    4  A    between atoms: _6  and  _7
REMARK    5  A    between atoms: _17  and  _19
REMARK    6  A    between atoms: _19  and  _20
REMARK    7  A    between atoms: _19  and  _22
REMARK    8  A    between atoms: _22  and  _23
REMARK    9  A    between atoms: _27  and  _28
REMARK   10  A    between atoms: _33  and  _35
REMARK   11  A    between atoms: _35  and  _36
REMARK   12  A    between atoms: _35  and  _38
REMARK   13  A    between atoms: _38  and  _39
REMARK   14  A    between atoms: _43  and  _44
REMARK   15  A    between atoms: _49  and  _51
REMARK   16  A    between atoms: _51  and  _52
REMARK   17  A    between atoms: _55  and  _57
REMARK   18  A    between atoms: _57  and  _58
REMARK   19  A    between atoms: _57  and  _60
REMARK   20  A    between atoms: _60  and  _61
REMARK   21  A    between atoms: _64  and  _66
REMARK   22  A    between atoms: _66  and  _67
REMARK   23  A    between atoms: _69  and  _71
REMARK   24  A    between atoms: _71  and  _72
REMARK   25  A    between atoms: _71  and  _74
REMARK   26  A    between atoms: _74  and  _75
REMARK   27  A    between atoms: _75  and  _76
REMARK   28  A    between atoms: _81  and  _83
REMARK   29  A    between atoms: _83  and  _84
REMARK   30  A    between atoms: _86  and  _88
REMARK   31  A    between atoms: _88  and  _89
REMARK   32  A    between atoms: _91  and  _93
REMARK   33  A    between atoms: _93  and  _94
REMARK   34  A    between atoms: _96  and  _98
REMARK   35  A    between atoms: _98  and  _99
REMARK   36  A    between atoms: _98  and  _101
REMARK   37  A    between atoms: _101  and  _102
REMARK   38  A    between atoms: _107  and  _108
REMARK   39  A    between atoms: _110  and  _112
REMARK   40  A    between atoms: _112  and  _113
REMARK   41  A    between atoms: _112  and  _115
REMARK   42  A    between atoms: _115  and  _116
REMARK   43  A    between atoms: _119  and  _121
REMARK   44  A    between atoms: _121  and  _122
REMARK   45  A    between atoms: _124  and  _126
REMARK   46  A    between atoms: _126  and  _127
REMARK   47  A    between atoms: _126  and  _129
REMARK   48  A    between atoms: _129  and  _130
REMARK   49  A    between atoms: _135  and  _137
REMARK   50  A    between atoms: _137  and  _138
REMARK   51  A    between atoms: _137  and  _140
REMARK   52  A    between atoms: _140  and  _141
REMARK   53  A    between atoms: _146  and  _148
REMARK   54  A    between atoms: _148  and  _149
REMARK   55  A    between atoms: _148  and  _151
REMARK   56  A    between atoms: _151  and  _152
REMARK   57  A    between atoms: _154  and  _156
REMARK   58  A    between atoms: _156  and  _157
REMARK   59  A    between atoms: _156  and  _159
REMARK   60  A    between atoms: _159  and  _160
REMARK   61  A    between atoms: _163  and  _165
REMARK   62  A    between atoms: _165  and  _166
REMARK   63  A    between atoms: _165  and  _168
REMARK   64  A    between atoms: _168  and  _169
REMARK   65  A    between atoms: _177  and  _180
REMARK   66  A    between atoms: _180  and  _181
REMARK   67  A    between atoms: _185  and  _188
REMARK   68  A    between atoms: _188  and  _189
REMARK   69  A    between atoms: _196  and  _199
REMARK   70  A    between atoms: _199  and  _200
REMARK   71  A    between atoms: _200  and  _201
REMARK   72  A    between atoms: _208  and  _211
REMARK   73  A    between atoms: _211  and  _212
REMARK   74  A    between atoms: _224  and  _225
REMARK   75  A    between atoms: _231  and  _233
REMARK   76  A    between atoms: _233  and  _234
REMARK   77  A    between atoms: _237  and  _239
REMARK   78  A    between atoms: _239  and  _240
REMARK   79  A    between atoms: _239  and  _242
REMARK   80  A    between atoms: _242  and  _243
REMARK   81  A    between atoms: _246  and  _248
REMARK   82  A    between atoms: _248  and  _249
REMARK   83  A    between atoms: _251  and  _253
REMARK   84  A    between atoms: _253  and  _254
REMARK   85  A    between atoms: _257  and  _259
REMARK   86  A    between atoms: _259  and  _260
REMARK   87  A    between atoms: _259  and  _262
REMARK   88  A    between atoms: _262  and  _263
REMARK   89  A    between atoms: _263  and  _264
REMARK   90  A    between atoms: _269  and  _271
REMARK   91  A    between atoms: _271  and  _272
REMARK   92  A    between atoms: _271  and  _274
REMARK   93  A    between atoms: _274  and  _275
REMARK   94  A    between atoms: _275  and  _276
REMARK   95  A    between atoms: _276  and  _277
REMARK   96  A    between atoms: _286  and  _288
REMARK   97  A    between atoms: _288  and  _289
REMARK   98  A    between atoms: _288  and  _291
REMARK   99  A    between atoms: _291  and  _292
REMARK  100  A    between atoms: _295  and  _297
REMARK  101  A    between atoms: _297  and  _298
REMARK  102  A    between atoms: _301  and  _303
REMARK  103  A    between atoms: _303  and  _304
REMARK                            x       y       z     vdW  Elec       q    Type
REMARK                         _______ _______ _______ _____ _____    ______ ____
ROOT
ATOM      1  O   HOH     1     -32.486 -37.145  -5.064  0.00  0.00    +0.000 OA
ENDROOT
TORSDOF 0
REMARK  Name = ../refined-set-2016/3n35/3n35_pocket.pdb
REMARK  103 active torsions:
REMARK  status: ('A' for Active; 'I' for Inactive)
REMARK    1  A    between atoms: _1  and  _3
REMARK    2  A    between atoms: _3  and  _4
REMARK    3  A    between atoms: _3  and  _6
REMARK    4  A    between atoms: _6  and  _7
REMARK    5  A    between atoms: _17  and  _19
REMARK    6  A    between atoms: _19  and  _20
REMARK    7  A    between atoms: _19  and  _22
REMARK    8  A    between atoms: _22  and  _23
REMARK    9  A    between atoms: _27  and  _28
REMARK   10  A    between atoms: _33  and  _35
REMARK   11  A    between atoms: _35  and  _36
REMARK   12  A    between atoms: _35  and  _38
REMARK   13  A    between atoms: _38  and  _39
REMARK   14  A    between atoms: _43  and  _44
REMARK   15  A    between atoms: _49  and  _51
REMARK   16  A    between atoms: _51  and  _52
REMARK   17  A    between atoms: _55  and  _57
REMARK   18  A    between atoms: _57  and  _58
REMARK   19  A    between atoms: _57  and  _60
REMARK   20  A    between atoms: _60  and  _61
REMARK   21  A    between atoms: _64  and  _66
REMARK   22  A    between atoms: _66  and  _67
REMARK   23  A    between atoms: _69  and  _71
REMARK   24  A    between atoms: _71  and  _72
REMARK   25  A    between atoms: _71  and  _74
REMARK   26  A    between atoms: _74  and  _75
REMARK   27  A    between atoms: _75  and  _76
REMARK   28  A    between atoms: _81  and  _83
REMARK   29  A    between atoms: _83  and  _84
REMARK   30  A    between atoms: _86  and  _88
REMARK   31  A    between atoms: _88  and  _89
REMARK   32  A    between atoms: _91  and  _93
REMARK   33  A    between atoms: _93  and  _94
REMARK   34  A    between atoms: _96  and  _98
REMARK   35  A    between atoms: _98  and  _99
REMARK   36  A    between atoms: _98  and  _101
REMARK   37  A    between atoms: _101  and  _102
REMARK   38  A    between atoms: _107  and  _108
REMARK   39  A    between atoms: _110  and  _112
REMARK   40  A    between atoms: _112  and  _113
REMARK   41  A    between atoms: _112  and  _115
REMARK   42  A    between atoms: _115  and  _116
REMARK   43  A    between atoms: _119  and  _121
REMARK   44  A    between atoms: _121  and  _122
REMARK   45  A    between atoms: _124  and  _126
REMARK   46  A    between atoms: _126  and  _127
REMARK   47  A    between atoms: _126  and  _129
REMARK   48  A    between atoms: _129  and  _130
REMARK   49  A    between atoms: _135  and  _137
REMARK   50  A    between atoms: _137  and  _138
REMARK   51  A    between atoms: _137  and  _140
REMARK   52  A    between atoms: _140  and  _141
REMARK   53  A    between atoms: _146  and  _148
REMARK   54  A    between atoms: _148  and  _149
REMARK   55  A    between atoms: _148  and  _151
REMARK   56  A    between atoms: _151  and  _152
REMARK   57  A    between atoms: _154  and  _156
REMARK   58  A    between atoms: _156  and  _157
REMARK   59  A    between atoms: _156  and  _159
REMARK   60  A    between atoms: _159  and  _160
REMARK   61  A    between atoms: _163  and  _165
REMARK   62  A    between atoms: _165  and  _166
REMARK   63  A    between atoms: _165  and  _168
REMARK   64  A    between atoms: _168  and  _169
REMARK   65  A    between atoms: _177  and  _180
REMARK   66  A    between atoms: _180  and  _181
REMARK   67  A    between atoms: _185  and  _188
REMARK   68  A    between atoms: _188  and  _189
REMARK   69  A    between atoms: _196  and  _199
REMARK   70  A    between atoms: _199  and  _200
REMARK   71  A    between atoms: _200  and  _201
REMARK   72  A    between atoms: _208  and  _211
REMARK   73  A    between atoms: _211  and  _212
REMARK   74  A    between atoms: _224  and  _225
REMARK   75  A    between atoms: _231  and  _233
REMARK   76  A    between atoms: _233  and  _234
REMARK   77  A    between atoms: _237  and  _239
REMARK   78  A    between atoms: _239  and  _240
REMARK   79  A    between atoms: _239  and  _242
REMARK   80  A    between atoms: _242  and  _243
REMARK   81  A    between atoms: _246  and  _248
REMARK   82  A    between atoms: _248  and  _249
REMARK   83  A    between atoms: _251  and  _253
REMARK   84  A    between atoms: _253  and  _254
REMARK   85  A    between atoms: _257  and  _259
REMARK   86  A    between atoms: _259  and  _260
REMARK   87  A    between atoms: _259  and  _262
REMARK   88  A    between atoms: _262  and  _263
REMARK   89  A    between atoms: _263  and  _264
REMARK   90  A    between atoms: _269  and  _271
REMARK   91  A    between atoms: _271  and  _272
REMARK   92  A    between atoms: _271  and  _274
REMARK   93  A    between atoms: _274  and  _275
REMARK   94  A    between atoms: _275  and  _276
REMARK   95  A    between atoms: _276  and  _277
REMARK   96  A    between atoms: _286  and  _288
REMARK   97  A    between atoms: _288  and  _289
REMARK   98  A    between atoms: _288  and  _291
REMARK   99  A    between atoms: _291  and  _292
REMARK  100  A    between atoms: _295  and  _297
REMARK  101  A    between atoms: _297  and  _298
REMARK  102  A    between atoms: _301  and  _303
REMARK  103  A    between atoms: _303  and  _304
REMARK                            x       y       z     vdW  Elec       q    Type
REMARK                         _______ _______ _______ _____ _____    ______ ____
ROOT
ATOM      1  O   HOH     1     -41.559 -28.886   5.144  0.00  0.00    +0.000 OA
ENDROOT
TORSDOF 0
REMARK  Name = ../refined-set-2016/3n35/3n35_pocket.pdb
REMARK  103 active torsions:
REMARK  status: ('A' for Active; 'I' for Inactive)
REMARK    1  A    between atoms: _1  and  _3
REMARK    2  A    between atoms: _3  and  _4
REMARK    3  A    between atoms: _3  and  _6
REMARK    4  A    between atoms: _6  and  _7
REMARK    5  A    between atoms: _17  and  _19
REMARK    6  A    between atoms: _19  and  _20
REMARK    7  A    between atoms: _19  and  _22
REMARK    8  A    between atoms: _22  and  _23
REMARK    9  A    between atoms: _27  and  _28
REMARK   10  A    between atoms: _33  and  _35
REMARK   11  A    between atoms: _35  and  _36
REMARK   12  A    between atoms: _35  and  _38
REMARK   13  A    between atoms: _38  and  _39
REMARK   14  A    between atoms: _43  and  _44
REMARK   15  A    between atoms: _49  and  _51
REMARK   16  A    between atoms: _51  and  _52
REMARK   17  A    between atoms: _55  and  _57
REMARK   18  A    between atoms: _57  and  _58
REMARK   19  A    between atoms: _57  and  _60
REMARK   20  A    between atoms: _60  and  _61
REMARK   21  A    between atoms: _64  and  _66
REMARK   22  A    between atoms: _66  and  _67
REMARK   23  A    between atoms: _69  and  _71
REMARK   24  A    between atoms: _71  and  _72
REMARK   25  A    between atoms: _71  and  _74
REMARK   26  A    between atoms: _74  and  _75
REMARK   27  A    between atoms: _75  and  _76
REMARK   28  A    between atoms: _81  and  _83
REMARK   29  A    between atoms: _83  and  _84
REMARK   30  A    between atoms: _86  and  _88
REMARK   31  A    between atoms: _88  and  _89
REMARK   32  A    between atoms: _91  and  _93
REMARK   33  A    between atoms: _93  and  _94
REMARK   34  A    between atoms: _96  and  _98
REMARK   35  A    between atoms: _98  and  _99
REMARK   36  A    between atoms: _98  and  _101
REMARK   37  A    between atoms: _101  and  _102
REMARK   38  A    between atoms: _107  and  _108
REMARK   39  A    between atoms: _110  and  _112
REMARK   40  A    between atoms: _112  and  _113
REMARK   41  A    between atoms: _112  and  _115
REMARK   42  A    between atoms: _115  and  _116
REMARK   43  A    between atoms: _119  and  _121
REMARK   44  A    between atoms: _121  and  _122
REMARK   45  A    between atoms: _124  and  _126
REMARK   46  A    between atoms: _126  and  _127
REMARK   47  A    between atoms: _126  and  _129
REMARK   48  A    between atoms: _129  and  _130
REMARK   49  A    between atoms: _135  and  _137
REMARK   50  A    between atoms: _137  and  _138
REMARK   51  A    between atoms: _137  and  _140
REMARK   52  A    between atoms: _140  and  _141
REMARK   53  A    between atoms: _146  and  _148
REMARK   54  A    between atoms: _148  and  _149
REMARK   55  A    between atoms: _148  and  _151
REMARK   56  A    between atoms: _151  and  _152
REMARK   57  A    between atoms: _154  and  _156
REMARK   58  A    between atoms: _156  and  _157
REMARK   59  A    between atoms: _156  and  _159
REMARK   60  A    between atoms: _159  and  _160
REMARK   61  A    between atoms: _163  and  _165
REMARK   62  A    between atoms: _165  and  _166
REMARK   63  A    between atoms: _165  and  _168
REMARK   64  A    between atoms: _168  and  _169
REMARK   65  A    between atoms: _177  and  _180
REMARK   66  A    between atoms: _180  and  _181
REMARK   67  A    between atoms: _185  and  _188
REMARK   68  A    between atoms: _188  and  _189
REMARK   69  A    between atoms: _196  and  _199
REMARK   70  A    between atoms: _199  and  _200
REMARK   71  A    between atoms: _200  and  _201
REMARK   72  A    between atoms: _208  and  _211
REMARK   73  A    between atoms: _211  and  _212
REMARK   74  A    between atoms: _224  and  _225
REMARK   75  A    between atoms: _231  and  _233
REMARK   76  A    between atoms: _233  and  _234
REMARK   77  A    between atoms: _237  and  _239
REMARK   78  A    between atoms: _239  and  _240
REMARK   79  A    between atoms: _239  and  _242
REMARK   80  A    between atoms: _242  and  _243
REMARK   81  A    between atoms: _246  and  _248
REMARK   82  A    between atoms: _248  and  _249
REMARK   83  A    between atoms: _251  and  _253
REMARK   84  A    between atoms: _253  and  _254
REMARK   85  A    between atoms: _257  and  _259
REMARK   86  A    between atoms: _259  and  _260
REMARK   87  A    between atoms: _259  and  _262
REMARK   88  A    between atoms: _262  and  _263
REMARK   89  A    between atoms: _263  and  _264
REMARK   90  A    between atoms: _269  and  _271
REMARK   91  A    between atoms: _271  and  _272
REMARK   92  A    between atoms: _271  and  _274
REMARK   93  A    between atoms: _274  and  _275
REMARK   94  A    between atoms: _275  and  _276
REMARK   95  A    between atoms: _276  and  _277
REMARK   96  A    between atoms: _286  and  _288
REMARK   97  A    between atoms: _288  and  _289
REMARK   98  A    between atoms: _288  and  _291
REMARK   99  A    between atoms: _291  and  _292
REMARK  100  A    between atoms: _295  and  _297
REMARK  101  A    between atoms: _297  and  _298
REMARK  102  A    between atoms: _301  and  _303
REMARK  103  A    between atoms: _303  and  _304
REMARK                            x       y       z     vdW  Elec       q    Type
REMARK                         _______ _______ _______ _____ _____    ______ ____
ROOT
ATOM      1  O   HOH     1     -40.321 -30.142   1.834  0.00  0.00    +0.000 OA
ENDROOT
TORSDOF 0
REMARK  Name = ../refined-set-2016/3n35/3n35_pocket.pdb
REMARK  103 active torsions:
REMARK  status: ('A' for Active; 'I' for Inactive)
REMARK    1  A    between atoms: _1  and  _3
REMARK    2  A    between atoms: _3  and  _4
REMARK    3  A    between atoms: _3  and  _6
REMARK    4  A    between atoms: _6  and  _7
REMARK    5  A    between atoms: _17  and  _19
REMARK    6  A    between atoms: _19  and  _20
REMARK    7  A    between atoms: _19  and  _22
REMARK    8  A    between atoms: _22  and  _23
REMARK    9  A    between atoms: _27  and  _28
REMARK   10  A    between atoms: _33  and  _35
REMARK   11  A    between atoms: _35  and  _36
REMARK   12  A    between atoms: _35  and  _38
REMARK   13  A    between atoms: _38  and  _39
REMARK   14  A    between atoms: _43  and  _44
REMARK   15  A    between atoms: _49  and  _51
REMARK   16  A    between atoms: _51  and  _52
REMARK   17  A    between atoms: _55  and  _57
REMARK   18  A    between atoms: _57  and  _58
REMARK   19  A    between atoms: _57  and  _60
REMARK   20  A    between atoms: _60  and  _61
REMARK   21  A    between atoms: _64  and  _66
REMARK   22  A    between atoms: _66  and  _67
REMARK   23  A    between atoms: _69  and  _71
REMARK   24  A    between atoms: _71  and  _72
REMARK   25  A    between atoms: _71  and  _74
REMARK   26  A    between atoms: _74  and  _75
REMARK   27  A    between atoms: _75  and  _76
REMARK   28  A    between atoms: _81  and  _83
REMARK   29  A    between atoms: _83  and  _84
REMARK   30  A    between atoms: _86  and  _88
REMARK   31  A    between atoms: _88  and  _89
REMARK   32  A    between atoms: _91  and  _93
REMARK   33  A    between atoms: _93  and  _94
REMARK   34  A    between atoms: _96  and  _98
REMARK   35  A    between atoms: _98  and  _99
REMARK   36  A    between atoms: _98  and  _101
REMARK   37  A    between atoms: _101  and  _102
REMARK   38  A    between atoms: _107  and  _108
REMARK   39  A    between atoms: _110  and  _112
REMARK   40  A    between atoms: _112  and  _113
REMARK   41  A    between atoms: _112  and  _115
REMARK   42  A    between atoms: _115  and  _116
REMARK   43  A    between atoms: _119  and  _121
REMARK   44  A    between atoms: _121  and  _122
REMARK   45  A    between atoms: _124  and  _126
REMARK   46  A    between atoms: _126  and  _127
REMARK   47  A    between atoms: _126  and  _129
REMARK   48  A    between atoms: _129  and  _130
REMARK   49  A    between atoms: _135  and  _137
REMARK   50  A    between atoms: _137  and  _138
REMARK   51  A    between atoms: _137  and  _140
REMARK   52  A    between atoms: _140  and  _141
REMARK   53  A    between atoms: _146  and  _148
REMARK   54  A    between atoms: _148  and  _149
REMARK   55  A    between atoms: _148  and  _151
REMARK   56  A    between atoms: _151  and  _152
REMARK   57  A    between atoms: _154  and  _156
REMARK   58  A    between atoms: _156  and  _157
REMARK   59  A    between atoms: _156  and  _159
REMARK   60  A    between atoms: _159  and  _160
REMARK   61  A    between atoms: _163  and  _165
REMARK   62  A    between atoms: _165  and  _166
REMARK   63  A    between atoms: _165  and  _168
REMARK   64  A    between atoms: _168  and  _169
REMARK   65  A    between atoms: _177  and  _180
REMARK   66  A    between atoms: _180  and  _181
REMARK   67  A    between atoms: _185  and  _188
REMARK   68  A    between atoms: _188  and  _189
REMARK   69  A    between atoms: _196  and  _199
REMARK   70  A    between atoms: _199  and  _200
REMARK   71  A    between atoms: _200  and  _201
REMARK   72  A    between atoms: _208  and  _211
REMARK   73  A    between atoms: _211  and  _212
REMARK   74  A    between atoms: _224  and  _225
REMARK   75  A    between atoms: _231  and  _233
REMARK   76  A    between atoms: _233  and  _234
REMARK   77  A    between atoms: _237  and  _239
REMARK   78  A    between atoms: _239  and  _240
REMARK   79  A    between atoms: _239  and  _242
REMARK   80  A    between atoms: _242  and  _243
REMARK   81  A    between atoms: _246  and  _248
REMARK   82  A    between atoms: _248  and  _249
REMARK   83  A    between atoms: _251  and  _253
REMARK   84  A    between atoms: _253  and  _254
REMARK   85  A    between atoms: _257  and  _259
REMARK   86  A    between atoms: _259  and  _260
REMARK   87  A    between atoms: _259  and  _262
REMARK   88  A    between atoms: _262  and  _263
REMARK   89  A    between atoms: _263  and  _264
REMARK   90  A    between atoms: _269  and  _271
REMARK   91  A    between atoms: _271  and  _272
REMARK   92  A    between atoms: _271  and  _274
REMARK   93  A    between atoms: _274  and  _275
REMARK   94  A    between atoms: _275  and  _276
REMARK   95  A    between atoms: _276  and  _277
REMARK   96  A    between atoms: _286  and  _288
REMARK   97  A    between atoms: _288  and  _289
REMARK   98  A    between atoms: _288  and  _291
REMARK   99  A    between atoms: _291  and  _292
REMARK  100  A    between atoms: _295  and  _297
REMARK  101  A    between atoms: _297  and  _298
REMARK  102  A    between atoms: _301  and  _303
REMARK  103  A    between atoms: _303  and  _304
REMARK                            x       y       z     vdW  Elec       q    Type
REMARK                         _______ _______ _______ _____ _____    ______ ____
ROOT
ATOM      1  O   HOH     1     -39.914 -32.595  -9.011  0.00  0.00    +0.000 OA
ENDROOT
TORSDOF 0
REMARK  Name = ../refined-set-2016/3n35/3n35_pocket.pdb
REMARK  103 active torsions:
REMARK  status: ('A' for Active; 'I' for Inactive)
REMARK    1  A    between atoms: _1  and  _3
REMARK    2  A    between atoms: _3  and  _4
REMARK    3  A    between atoms: _3  and  _6
REMARK    4  A    between atoms: _6  and  _7
REMARK    5  A    between atoms: _17  and  _19
REMARK    6  A    between atoms: _19  and  _20
REMARK    7  A    between atoms: _19  and  _22
REMARK    8  A    between atoms: _22  and  _23
REMARK    9  A    between atoms: _27  and  _28
REMARK   10  A    between atoms: _33  and  _35
REMARK   11  A    between atoms: _35  and  _36
REMARK   12  A    between atoms: _35  and  _38
REMARK   13  A    between atoms: _38  and  _39
REMARK   14  A    between atoms: _43  and  _44
REMARK   15  A    between atoms: _49  and  _51
REMARK   16  A    between atoms: _51  and  _52
REMARK   17  A    between atoms: _55  and  _57
REMARK   18  A    between atoms: _57  and  _58
REMARK   19  A    between atoms: _57  and  _60
REMARK   20  A    between atoms: _60  and  _61
REMARK   21  A    between atoms: _64  and  _66
REMARK   22  A    between atoms: _66  and  _67
REMARK   23  A    between atoms: _69  and  _71
REMARK   24  A    between atoms: _71  and  _72
REMARK   25  A    between atoms: _71  and  _74
REMARK   26  A    between atoms: _74  and  _75
REMARK   27  A    between atoms: _75  and  _76
REMARK   28  A    between atoms: _81  and  _83
REMARK   29  A    between atoms: _83  and  _84
REMARK   30  A    between atoms: _86  and  _88
REMARK   31  A    between atoms: _88  and  _89
REMARK   32  A    between atoms: _91  and  _93
REMARK   33  A    between atoms: _93  and  _94
REMARK   34  A    between atoms: _96  and  _98
REMARK   35  A    between atoms: _98  and  _99
REMARK   36  A    between atoms: _98  and  _101
REMARK   37  A    between atoms: _101  and  _102
REMARK   38  A    between atoms: _107  and  _108
REMARK   39  A    between atoms: _110  and  _112
REMARK   40  A    between atoms: _112  and  _113
REMARK   41  A    between atoms: _112  and  _115
REMARK   42  A    between atoms: _115  and  _116
REMARK   43  A    between atoms: _119  and  _121
REMARK   44  A    between atoms: _121  and  _122
REMARK   45  A    between atoms: _124  and  _126
REMARK   46  A    between atoms: _126  and  _127
REMARK   47  A    between atoms: _126  and  _129
REMARK   48  A    between atoms: _129  and  _130
REMARK   49  A    between atoms: _135  and  _137
REMARK   50  A    between atoms: _137  and  _138
REMARK   51  A    between atoms: _137  and  _140
REMARK   52  A    between atoms: _140  and  _141
REMARK   53  A    between atoms: _146  and  _148
REMARK   54  A    between atoms: _148  and  _149
REMARK   55  A    between atoms: _148  and  _151
REMARK   56  A    between atoms: _151  and  _152
REMARK   57  A    between atoms: _154  and  _156
REMARK   58  A    between atoms: _156  and  _157
REMARK   59  A    between atoms: _156  and  _159
REMARK   60  A    between atoms: _159  and  _160
REMARK   61  A    between atoms: _163  and  _165
REMARK   62  A    between atoms: _165  and  _166
REMARK   63  A    between atoms: _165  and  _168
REMARK   64  A    between atoms: _168  and  _169
REMARK   65  A    between atoms: _177  and  _180
REMARK   66  A    between atoms: _180  and  _181
REMARK   67  A    between atoms: _185  and  _188
REMARK   68  A    between atoms: _188  and  _189
REMARK   69  A    between atoms: _196  and  _199
REMARK   70  A    between atoms: _199  and  _200
REMARK   71  A    between atoms: _200  and  _201
REMARK   72  A    between atoms: _208  and  _211
REMARK   73  A    between atoms: _211  and  _212
REMARK   74  A    between atoms: _224  and  _225
REMARK   75  A    between atoms: _231  and  _233
REMARK   76  A    between atoms: _233  and  _234
REMARK   77  A    between atoms: _237  and  _239
REMARK   78  A    between atoms: _239  and  _240
REMARK   79  A    between atoms: _239  and  _242
REMARK   80  A    between atoms: _242  and  _243
REMARK   81  A    between atoms: _246  and  _248
REMARK   82  A    between atoms: _248  and  _249
REMARK   83  A    between atoms: _251  and  _253
REMARK   84  A    between atoms: _253  and  _254
REMARK   85  A    between atoms: _257  and  _259
REMARK   86  A    between atoms: _259  and  _260
REMARK   87  A    between atoms: _259  and  _262
REMARK   88  A    between atoms: _262  and  _263
REMARK   89  A    between atoms: _263  and  _264
REMARK   90  A    between atoms: _269  and  _271
REMARK   91  A    between atoms: _271  and  _272
REMARK   92  A    between atoms: _271  and  _274
REMARK   93  A    between atoms: _274  and  _275
REMARK   94  A    between atoms: _275  and  _276
REMARK   95  A    between atoms: _276  and  _277
REMARK   96  A    between atoms: _286  and  _288
REMARK   97  A    between atoms: _288  and  _289
REMARK   98  A    between atoms: _288  and  _291
REMARK   99  A    between atoms: _291  and  _292
REMARK  100  A    between atoms: _295  and  _297
REMARK  101  A    between atoms: _297  and  _298
REMARK  102  A    between atoms: _301  and  _303
REMARK  103  A    between atoms: _303  and  _304
REMARK                            x       y       z     vdW  Elec       q    Type
REMARK                         _______ _______ _______ _____ _____    ______ ____
ROOT
ATOM      1  O   HOH     1     -38.197 -29.243   3.165  0.00  0.00    +0.000 OA
ENDROOT
TORSDOF 0
REMARK  Name = ../refined-set-2016/3n35/3n35_pocket.pdb
REMARK  103 active torsions:
REMARK  status: ('A' for Active; 'I' for Inactive)
REMARK    1  A    between atoms: _1  and  _3
REMARK    2  A    between atoms: _3  and  _4
REMARK    3  A    between atoms: _3  and  _6
REMARK    4  A    between atoms: _6  and  _7
REMARK    5  A    between atoms: _17  and  _19
REMARK    6  A    between atoms: _19  and  _20
REMARK    7  A    between atoms: _19  and  _22
REMARK    8  A    between atoms: _22  and  _23
REMARK    9  A    between atoms: _27  and  _28
REMARK   10  A    between atoms: _33  and  _35
REMARK   11  A    between atoms: _35  and  _36
REMARK   12  A    between atoms: _35  and  _38
REMARK   13  A    between atoms: _38  and  _39
REMARK   14  A    between atoms: _43  and  _44
REMARK   15  A    between atoms: _49  and  _51
REMARK   16  A    between atoms: _51  and  _52
REMARK   17  A    between atoms: _55  and  _57
REMARK   18  A    between atoms: _57  and  _58
REMARK   19  A    between atoms: _57  and  _60
REMARK   20  A    between atoms: _60  and  _61
REMARK   21  A    between atoms: _64  and  _66
REMARK   22  A    between atoms: _66  and  _67
REMARK   23  A    between atoms: _69  and  _71
REMARK   24  A    between atoms: _71  and  _72
REMARK   25  A    between atoms: _71  and  _74
REMARK   26  A    between atoms: _74  and  _75
REMARK   27  A    between atoms: _75  and  _76
REMARK   28  A    between atoms: _81  and  _83
REMARK   29  A    between atoms: _83  and  _84
REMARK   30  A    between atoms: _86  and  _88
REMARK   31  A    between atoms: _88  and  _89
REMARK   32  A    between atoms: _91  and  _93
REMARK   33  A    between atoms: _93  and  _94
REMARK   34  A    between atoms: _96  and  _98
REMARK   35  A    between atoms: _98  and  _99
REMARK   36  A    between atoms: _98  and  _101
REMARK   37  A    between atoms: _101  and  _102
REMARK   38  A    between atoms: _107  and  _108
REMARK   39  A    between atoms: _110  and  _112
REMARK   40  A    between atoms: _112  and  _113
REMARK   41  A    between atoms: _112  and  _115
REMARK   42  A    between atoms: _115  and  _116
REMARK   43  A    between atoms: _119  and  _121
REMARK   44  A    between atoms: _121  and  _122
REMARK   45  A    between atoms: _124  and  _126
REMARK   46  A    between atoms: _126  and  _127
REMARK   47  A    between atoms: _126  and  _129
REMARK   48  A    between atoms: _129  and  _130
REMARK   49  A    between atoms: _135  and  _137
REMARK   50  A    between atoms: _137  and  _138
REMARK   51  A    between atoms: _137  and  _140
REMARK   52  A    between atoms: _140  and  _141
REMARK   53  A    between atoms: _146  and  _148
REMARK   54  A    between atoms: _148  and  _149
REMARK   55  A    between atoms: _148  and  _151
REMARK   56  A    between atoms: _151  and  _152
REMARK   57  A    between atoms: _154  and  _156
REMARK   58  A    between atoms: _156  and  _157
REMARK   59  A    between atoms: _156  and  _159
REMARK   60  A    between atoms: _159  and  _160
REMARK   61  A    between atoms: _163  and  _165
REMARK   62  A    between atoms: _165  and  _166
REMARK   63  A    between atoms: _165  and  _168
REMARK   64  A    between atoms: _168  and  _169
REMARK   65  A    between atoms: _177  and  _180
REMARK   66  A    between atoms: _180  and  _181
REMARK   67  A    between atoms: _185  and  _188
REMARK   68  A    between atoms: _188  and  _189
REMARK   69  A    between atoms: _196  and  _199
REMARK   70  A    between atoms: _199  and  _200
REMARK   71  A    between atoms: _200  and  _201
REMARK   72  A    between atoms: _208  and  _211
REMARK   73  A    between atoms: _211  and  _212
REMARK   74  A    between atoms: _224  and  _225
REMARK   75  A    between atoms: _231  and  _233
REMARK   76  A    between atoms: _233  and  _234
REMARK   77  A    between atoms: _237  and  _239
REMARK   78  A    between atoms: _239  and  _240
REMARK   79  A    between atoms: _239  and  _242
REMARK   80  A    between atoms: _242  and  _243
REMARK   81  A    between atoms: _246  and  _248
REMARK   82  A    between atoms: _248  and  _249
REMARK   83  A    between atoms: _251  and  _253
REMARK   84  A    between atoms: _253  and  _254
REMARK   85  A    between atoms: _257  and  _259
REMARK   86  A    between atoms: _259  and  _260
REMARK   87  A    between atoms: _259  and  _262
REMARK   88  A    between atoms: _262  and  _263
REMARK   89  A    between atoms: _263  and  _264
REMARK   90  A    between atoms: _269  and  _271
REMARK   91  A    between atoms: _271  and  _272
REMARK   92  A    between atoms: _271  and  _274
REMARK   93  A    between atoms: _274  and  _275
REMARK   94  A    between atoms: _275  and  _276
REMARK   95  A    between atoms: _276  and  _277
REMARK   96  A    between atoms: _286  and  _288
REMARK   97  A    between atoms: _288  and  _289
REMARK   98  A    between atoms: _288  and  _291
REMARK   99  A    between atoms: _291  and  _292
REMARK  100  A    between atoms: _295  and  _297
REMARK  101  A    between atoms: _297  and  _298
REMARK  102  A    between atoms: _301  and  _303
REMARK  103  A    between atoms: _303  and  _304
REMARK                            x       y       z     vdW  Elec       q    Type
REMARK                         _______ _______ _______ _____ _____    ______ ____
ROOT
ATOM      1  O   HOH     1     -42.423 -29.003   0.563  0.00  0.00    +0.000 OA
ENDROOT
TORSDOF 0
REMARK  Name = ../refined-set-2016/3n35/3n35_pocket.pdb
REMARK  103 active torsions:
REMARK  status: ('A' for Active; 'I' for Inactive)
REMARK    1  A    between atoms: _1  and  _3
REMARK    2  A    between atoms: _3  and  _4
REMARK    3  A    between atoms: _3  and  _6
REMARK    4  A    between atoms: _6  and  _7
REMARK    5  A    between atoms: _17  and  _19
REMARK    6  A    between atoms: _19  and  _20
REMARK    7  A    between atoms: _19  and  _22
REMARK    8  A    between atoms: _22  and  _23
REMARK    9  A    between atoms: _27  and  _28
REMARK   10  A    between atoms: _33  and  _35
REMARK   11  A    between atoms: _35  and  _36
REMARK   12  A    between atoms: _35  and  _38
REMARK   13  A    between atoms: _38  and  _39
REMARK   14  A    between atoms: _43  and  _44
REMARK   15  A    between atoms: _49  and  _51
REMARK   16  A    between atoms: _51  and  _52
REMARK   17  A    between atoms: _55  and  _57
REMARK   18  A    between atoms: _57  and  _58
REMARK   19  A    between atoms: _57  and  _60
REMARK   20  A    between atoms: _60  and  _61
REMARK   21  A    between atoms: _64  and  _66
REMARK   22  A    between atoms: _66  and  _67
REMARK   23  A    between atoms: _69  and  _71
REMARK   24  A    between atoms: _71  and  _72
REMARK   25  A    between atoms: _71  and  _74
REMARK   26  A    between atoms: _74  and  _75
REMARK   27  A    between atoms: _75  and  _76
REMARK   28  A    between atoms: _81  and  _83
REMARK   29  A    between atoms: _83  and  _84
REMARK   30  A    between atoms: _86  and  _88
REMARK   31  A    between atoms: _88  and  _89
REMARK   32  A    between atoms: _91  and  _93
REMARK   33  A    between atoms: _93  and  _94
REMARK   34  A    between atoms: _96  and  _98
REMARK   35  A    between atoms: _98  and  _99
REMARK   36  A    between atoms: _98  and  _101
REMARK   37  A    between atoms: _101  and  _102
REMARK   38  A    between atoms: _107  and  _108
REMARK   39  A    between atoms: _110  and  _112
REMARK   40  A    between atoms: _112  and  _113
REMARK   41  A    between atoms: _112  and  _115
REMARK   42  A    between atoms: _115  and  _116
REMARK   43  A    between atoms: _119  and  _121
REMARK   44  A    between atoms: _121  and  _122
REMARK   45  A    between atoms: _124  and  _126
REMARK   46  A    between atoms: _126  and  _127
REMARK   47  A    between atoms: _126  and  _129
REMARK   48  A    between atoms: _129  and  _130
REMARK   49  A    between atoms: _135  and  _137
REMARK   50  A    between atoms: _137  and  _138
REMARK   51  A    between atoms: _137  and  _140
REMARK   52  A    between atoms: _140  and  _141
REMARK   53  A    between atoms: _146  and  _148
REMARK   54  A    between atoms: _148  and  _149
REMARK   55  A    between atoms: _148  and  _151
REMARK   56  A    between atoms: _151  and  _152
REMARK   57  A    between atoms: _154  and  _156
REMARK   58  A    between atoms: _156  and  _157
REMARK   59  A    between atoms: _156  and  _159
REMARK   60  A    between atoms: _159  and  _160
REMARK   61  A    between atoms: _163  and  _165
REMARK   62  A    between atoms: _165  and  _166
REMARK   63  A    between atoms: _165  and  _168
REMARK   64  A    between atoms: _168  and  _169
REMARK   65  A    between atoms: _177  and  _180
REMARK   66  A    between atoms: _180  and  _181
REMARK   67  A    between atoms: _185  and  _188
REMARK   68  A    between atoms: _188  and  _189
REMARK   69  A    between atoms: _196  and  _199
REMARK   70  A    between atoms: _199  and  _200
REMARK   71  A    between atoms: _200  and  _201
REMARK   72  A    between atoms: _208  and  _211
REMARK   73  A    between atoms: _211  and  _212
REMARK   74  A    between atoms: _224  and  _225
REMARK   75  A    between atoms: _231  and  _233
REMARK   76  A    between atoms: _233  and  _234
REMARK   77  A    between atoms: _237  and  _239
REMARK   78  A    between atoms: _239  and  _240
REMARK   79  A    between atoms: _239  and  _242
REMARK   80  A    between atoms: _242  and  _243
REMARK   81  A    between atoms: _246  and  _248
REMARK   82  A    between atoms: _248  and  _249
REMARK   83  A    between atoms: _251  and  _253
REMARK   84  A    between atoms: _253  and  _254
REMARK   85  A    between atoms: _257  and  _259
REMARK   86  A    between atoms: _259  and  _260
REMARK   87  A    between atoms: _259  and  _262
REMARK   88  A    between atoms: _262  and  _263
REMARK   89  A    between atoms: _263  and  _264
REMARK   90  A    between atoms: _269  and  _271
REMARK   91  A    between atoms: _271  and  _272
REMARK   92  A    between atoms: _271  and  _274
REMARK   93  A    between atoms: _274  and  _275
REMARK   94  A    between atoms: _275  and  _276
REMARK   95  A    between atoms: _276  and  _277
REMARK   96  A    between atoms: _286  and  _288
REMARK   97  A    between atoms: _288  and  _289
REMARK   98  A    between atoms: _288  and  _291
REMARK   99  A    between atoms: _291  and  _292
REMARK  100  A    between atoms: _295  and  _297
REMARK  101  A    between atoms: _297  and  _298
REMARK  102  A    between atoms: _301  and  _303
REMARK  103  A    between atoms: _303  and  _304
REMARK                            x       y       z     vdW  Elec       q    Type
REMARK                         _______ _______ _______ _____ _____    ______ ____
ROOT
ATOM      1  O   HOH     1     -38.014 -33.167  -7.207  0.00  0.00    +0.000 OA
ENDROOT
TORSDOF 0
