REMARK  Name = ../refined-set-2016/4jwk/4jwk_pocket.pdb
REMARK  111 active torsions:
REMARK  status: ('A' for Active; 'I' for Inactive)
REMARK    1  A    between atoms: _1  and  _3
REMARK    2  A    between atoms: _3  and  _4
REMARK    3  A    between atoms: _3  and  _6
REMARK    4  A    between atoms: _6  and  _7
REMARK    5  A    between atoms: _10  and  _12
REMARK    6  A    between atoms: _12  and  _13
REMARK    7  A    between atoms: _15  and  _17
REMARK    8  A    between atoms: _17  and  _18
REMARK    9  A    between atoms: _17  and  _20
REMARK   10  A    between atoms: _20  and  _21
REMARK   11  A    between atoms: _27  and  _28
REMARK   12  A    between atoms: _33  and  _35
REMARK   13  A    between atoms: _35  and  _36
REMARK   14  A    between atoms: _35  and  _38
REMARK   15  A    between atoms: _38  and  _39
REMARK   16  A    between atoms: _39  and  _40
REMARK   17  A    between atoms: _43  and  _45
REMARK   18  A    between atoms: _45  and  _46
REMARK   19  A    between atoms: _45  and  _48
REMARK   20  A    between atoms: _48  and  _49
REMARK   21  A    between atoms: _54  and  _55
REMARK   22  A    between atoms: _57  and  _59
REMARK   23  A    between atoms: _59  and  _60
REMARK   24  A    between atoms: _59  and  _62
REMARK   25  A    between atoms: _62  and  _63
REMARK   26  A    between atoms: _68  and  _70
REMARK   27  A    between atoms: _70  and  _71
REMARK   28  A    between atoms: _70  and  _73
REMARK   29  A    between atoms: _73  and  _74
REMARK   30  A    between atoms: _77  and  _79
REMARK   31  A    between atoms: _79  and  _80
REMARK   32  A    between atoms: _79  and  _82
REMARK   33  A    between atoms: _82  and  _83
REMARK   34  A    between atoms: _88  and  _89
REMARK   35  A    between atoms: _91  and  _93
REMARK   36  A    between atoms: _93  and  _94
REMARK   37  A    between atoms: _93  and  _96
REMARK   38  A    between atoms: _96  and  _97
REMARK   39  A    between atoms: _97  and  _98
REMARK   40  A    between atoms: _100  and  _102
REMARK   41  A    between atoms: _102  and  _103
REMARK   42  A    between atoms: _102  and  _105
REMARK   43  A    between atoms: _105  and  _106
REMARK   44  A    between atoms: _111  and  _113
REMARK   45  A    between atoms: _113  and  _114
REMARK   46  A    between atoms: _113  and  _116
REMARK   47  A    between atoms: _116  and  _117
REMARK   48  A    between atoms: _117  and  _118
REMARK   49  A    between atoms: _118  and  _119
REMARK   50  A    between atoms: _128  and  _130
REMARK   51  A    between atoms: _130  and  _131
REMARK   52  A    between atoms: _130  and  _133
REMARK   53  A    between atoms: _133  and  _134
REMARK   54  A    between atoms: _136  and  _138
REMARK   55  A    between atoms: _138  and  _139
REMARK   56  A    between atoms: _138  and  _141
REMARK   57  A    between atoms: _141  and  _142
REMARK   58  A    between atoms: _145  and  _147
REMARK   59  A    between atoms: _147  and  _148
REMARK   60  A    between atoms: _147  and  _150
REMARK   61  A    between atoms: _150  and  _151
REMARK   62  A    between atoms: _154  and  _156
REMARK   63  A    between atoms: _156  and  _157
REMARK   64  A    between atoms: _156  and  _159
REMARK   65  A    between atoms: _159  and  _160
REMARK   66  A    between atoms: _165  and  _167
REMARK   67  A    between atoms: _167  and  _168
REMARK   68  A    between atoms: _170  and  _172
REMARK   69  A    between atoms: _172  and  _173
REMARK   70  A    between atoms: _172  and  _175
REMARK   71  A    between atoms: _175  and  _176
REMARK   72  A    between atoms: _181  and  _183
REMARK   73  A    between atoms: _183  and  _184
REMARK   74  A    between atoms: _183  and  _186
REMARK   75  A    between atoms: _186  and  _187
REMARK   76  A    between atoms: _192  and  _194
REMARK   77  A    between atoms: _194  and  _195
REMARK   78  A    between atoms: _197  and  _199
REMARK   79  A    between atoms: _199  and  _200
REMARK   80  A    between atoms: _199  and  _202
REMARK   81  A    between atoms: _202  and  _203
REMARK   82  A    between atoms: _206  and  _208
REMARK   83  A    between atoms: _208  and  _209
REMARK   84  A    between atoms: _208  and  _211
REMARK   85  A    between atoms: _211  and  _212
REMARK   86  A    between atoms: _212  and  _213
REMARK   87  A    between atoms: _213  and  _214
REMARK   88  A    between atoms: _223  and  _225
REMARK   89  A    between atoms: _225  and  _226
REMARK   90  A    between atoms: _225  and  _228
REMARK   91  A    between atoms: _228  and  _229
REMARK   92  A    between atoms: _232  and  _234
REMARK   93  A    between atoms: _234  and  _235
REMARK   94  A    between atoms: _234  and  _237
REMARK   95  A    between atoms: _240  and  _242
REMARK   96  A    between atoms: _242  and  _243
REMARK   97  A    between atoms: _242  and  _245
REMARK   98  A    between atoms: _245  and  _246
REMARK   99  A    between atoms: _248  and  _250
REMARK  100  A    between atoms: _250  and  _251
REMARK  101  A    between atoms: _253  and  _255
REMARK  102  A    between atoms: _255  and  _256
REMARK  103  A    between atoms: _255  and  _258
REMARK  104  A    between atoms: _258  and  _259
REMARK  105  A    between atoms: _264  and  _266
REMARK  106  A    between atoms: _266  and  _267
REMARK  107  A    between atoms: _266  and  _269
REMARK  108  A    between atoms: _272  and  _274
REMARK  109  A    between atoms: _274  and  _275
REMARK  110  A    between atoms: _274  and  _277
REMARK  111  A    between atoms: _277  and  _278
REMARK                            x       y       z     vdW  Elec       q    Type
REMARK                         _______ _______ _______ _____ _____    ______ ____
ROOT
ATOM      1  C   GLY A   2       7.592  14.747  24.452  0.00  0.00    +0.243 C 
ATOM      2  N   ASN A   3       8.139  14.671  25.659  0.00  0.00    -0.297 N 
ATOM      3  H   ASN A   3       8.515  13.755  25.976  0.00  0.00    +0.150 HD
ATOM      4  O   GLY A   2       7.059  15.767  24.000  0.00  0.00    -0.273 OA
ENDROOT
BRANCH   1   5
ATOM      5  CA  GLY A   2       7.642  13.474  23.641  0.00  0.00    +0.176 C 
BRANCH   5   7
ATOM      6  C   LEU A   1       7.311  12.774  21.343  0.00  0.00    +0.238 C 
ATOM      7  N   GLY A   2       7.168  13.690  22.288  0.00  0.00    -0.296 N 
ATOM      8  H   GLY A   2       6.703  14.590  22.053  0.00  0.00    +0.150 HD
ATOM      9  O   LEU A   1       7.828  11.678  21.546  0.00  0.00    -0.274 OA
BRANCH   6  10
ATOM     10  CA  LEU A   1       6.800  13.168  19.956  0.00  0.00    +0.145 C 
BRANCH  10  11
ATOM     11  N   LEU A   1       7.558  12.509  18.901  0.00  0.00    -0.238 NA
ATOM     12  H   LEU A   1       7.275  11.559  18.587  0.00  0.00    +0.142 HD
ENDBRANCH  10  11
BRANCH  10  13
ATOM     13  CB  LEU A   1       5.303  12.870  19.831  0.00  0.00    +0.026 C 
BRANCH  13  14
ATOM     14  CG  LEU A   1       4.608  13.287  18.524  0.00  0.00    +0.002 C 
ATOM     15  CD2 LEU A   1       3.120  12.998  18.628  0.00  0.00    +0.000 C 
ATOM     16  CD1 LEU A   1       4.820  14.752  18.169  0.00  0.00    +0.000 C 
ENDBRANCH  13  14
ENDBRANCH  10  13
ENDBRANCH   6  10
ENDBRANCH   5   7
ENDBRANCH   1   5
BRANCH   2  17
ATOM     17  CA  ASN A   3       8.237  15.808  26.558  0.00  0.00    +0.158 C 
BRANCH  17  18
ATOM     18  C   ASN A   3       9.698  16.180  26.765  0.00  0.00    +0.244 C 
ATOM     19  N   PRO A   4       9.986  17.477  26.960  0.00  0.00    -0.273 N 
ATOM     20  CA  PRO A   4      11.355  17.917  27.212  0.00  0.00    +0.140 C 
ATOM     21  CB  PRO A   4      11.294  19.411  26.908  0.00  0.00    +0.030 C 
ATOM     22  CG  PRO A   4       9.905  19.790  27.286  0.00  0.00    +0.024 C 
ATOM     23  CD  PRO A   4       9.048  18.609  26.935  0.00  0.00    +0.094 C 
ATOM     24  O   ASN A   3      10.555  15.310  26.744  0.00  0.00    -0.273 OA
BRANCH  20  25
ATOM     25  C   PRO A   4      11.728  17.703  28.668  0.00  0.00    +0.227 C 
ATOM     26  O   PRO A   4      10.843  17.638  29.518  0.00  0.00    -0.286 OA
ENDBRANCH  20  25
ENDBRANCH  17  18
BRANCH  17  27
ATOM     27  CB  ASN A   3       7.607  15.462  27.906  0.00  0.00    +0.114 C 
BRANCH  27  28
ATOM     28  CG  ASN A   3       6.097  15.525  27.875  0.00  0.00    +0.222 C 
ATOM     29  ND2 ASN A   3       5.446  14.458  28.319  0.00  0.00    -0.329 N 
ATOM     30 HD21 ASN A   3       5.975  13.624  28.645  0.00  0.00    +0.145 HD
ATOM     31 HD22 ASN A   3       4.406  14.455  28.341  0.00  0.00    +0.145 HD
ATOM     32  OD1 ASN A   3       5.518  16.540  27.477  0.00  0.00    -0.275 OA
ENDBRANCH  27  28
ENDBRANCH  17  27
ENDBRANCH   2  17
TORSDOF 11
REMARK  Name = ../refined-set-2016/4jwk/4jwk_pocket.pdb
REMARK  111 active torsions:
REMARK  status: ('A' for Active; 'I' for Inactive)
REMARK    1  A    between atoms: _1  and  _3
REMARK    2  A    between atoms: _3  and  _4
REMARK    3  A    between atoms: _3  and  _6
REMARK    4  A    between atoms: _6  and  _7
REMARK    5  A    between atoms: _10  and  _12
REMARK    6  A    between atoms: _12  and  _13
REMARK    7  A    between atoms: _15  and  _17
REMARK    8  A    between atoms: _17  and  _18
REMARK    9  A    between atoms: _17  and  _20
REMARK   10  A    between atoms: _20  and  _21
REMARK   11  A    between atoms: _27  and  _28
REMARK   12  A    between atoms: _33  and  _35
REMARK   13  A    between atoms: _35  and  _36
REMARK   14  A    between atoms: _35  and  _38
REMARK   15  A    between atoms: _38  and  _39
REMARK   16  A    between atoms: _39  and  _40
REMARK   17  A    between atoms: _43  and  _45
REMARK   18  A    between atoms: _45  and  _46
REMARK   19  A    between atoms: _45  and  _48
REMARK   20  A    between atoms: _48  and  _49
REMARK   21  A    between atoms: _54  and  _55
REMARK   22  A    between atoms: _57  and  _59
REMARK   23  A    between atoms: _59  and  _60
REMARK   24  A    between atoms: _59  and  _62
REMARK   25  A    between atoms: _62  and  _63
REMARK   26  A    between atoms: _68  and  _70
REMARK   27  A    between atoms: _70  and  _71
REMARK   28  A    between atoms: _70  and  _73
REMARK   29  A    between atoms: _73  and  _74
REMARK   30  A    between atoms: _77  and  _79
REMARK   31  A    between atoms: _79  and  _80
REMARK   32  A    between atoms: _79  and  _82
REMARK   33  A    between atoms: _82  and  _83
REMARK   34  A    between atoms: _88  and  _89
REMARK   35  A    between atoms: _91  and  _93
REMARK   36  A    between atoms: _93  and  _94
REMARK   37  A    between atoms: _93  and  _96
REMARK   38  A    between atoms: _96  and  _97
REMARK   39  A    between atoms: _97  and  _98
REMARK   40  A    between atoms: _100  and  _102
REMARK   41  A    between atoms: _102  and  _103
REMARK   42  A    between atoms: _102  and  _105
REMARK   43  A    between atoms: _105  and  _106
REMARK   44  A    between atoms: _111  and  _113
REMARK   45  A    between atoms: _113  and  _114
REMARK   46  A    between atoms: _113  and  _116
REMARK   47  A    between atoms: _116  and  _117
REMARK   48  A    between atoms: _117  and  _118
REMARK   49  A    between atoms: _118  and  _119
REMARK   50  A    between atoms: _128  and  _130
REMARK   51  A    between atoms: _130  and  _131
REMARK   52  A    between atoms: _130  and  _133
REMARK   53  A    between atoms: _133  and  _134
REMARK   54  A    between atoms: _136  and  _138
REMARK   55  A    between atoms: _138  and  _139
REMARK   56  A    between atoms: _138  and  _141
REMARK   57  A    between atoms: _141  and  _142
REMARK   58  A    between atoms: _145  and  _147
REMARK   59  A    between atoms: _147  and  _148
REMARK   60  A    between atoms: _147  and  _150
REMARK   61  A    between atoms: _150  and  _151
REMARK   62  A    between atoms: _154  and  _156
REMARK   63  A    between atoms: _156  and  _157
REMARK   64  A    between atoms: _156  and  _159
REMARK   65  A    between atoms: _159  and  _160
REMARK   66  A    between atoms: _165  and  _167
REMARK   67  A    between atoms: _167  and  _168
REMARK   68  A    between atoms: _170  and  _172
REMARK   69  A    between atoms: _172  and  _173
REMARK   70  A    between atoms: _172  and  _175
REMARK   71  A    between atoms: _175  and  _176
REMARK   72  A    between atoms: _181  and  _183
REMARK   73  A    between atoms: _183  and  _184
REMARK   74  A    between atoms: _183  and  _186
REMARK   75  A    between atoms: _186  and  _187
REMARK   76  A    between atoms: _192  and  _194
REMARK   77  A    between atoms: _194  and  _195
REMARK   78  A    between atoms: _197  and  _199
REMARK   79  A    between atoms: _199  and  _200
REMARK   80  A    between atoms: _199  and  _202
REMARK   81  A    between atoms: _202  and  _203
REMARK   82  A    between atoms: _206  and  _208
REMARK   83  A    between atoms: _208  and  _209
REMARK   84  A    between atoms: _208  and  _211
REMARK   85  A    between atoms: _211  and  _212
REMARK   86  A    between atoms: _212  and  _213
REMARK   87  A    between atoms: _213  and  _214
REMARK   88  A    between atoms: _223  and  _225
REMARK   89  A    between atoms: _225  and  _226
REMARK   90  A    between atoms: _225  and  _228
REMARK   91  A    between atoms: _228  and  _229
REMARK   92  A    between atoms: _232  and  _234
REMARK   93  A    between atoms: _234  and  _235
REMARK   94  A    between atoms: _234  and  _237
REMARK   95  A    between atoms: _240  and  _242
REMARK   96  A    between atoms: _242  and  _243
REMARK   97  A    between atoms: _242  and  _245
REMARK   98  A    between atoms: _245  and  _246
REMARK   99  A    between atoms: _248  and  _250
REMARK  100  A    between atoms: _250  and  _251
REMARK  101  A    between atoms: _253  and  _255
REMARK  102  A    between atoms: _255  and  _256
REMARK  103  A    between atoms: _255  and  _258
REMARK  104  A    between atoms: _258  and  _259
REMARK  105  A    between atoms: _264  and  _266
REMARK  106  A    between atoms: _266  and  _267
REMARK  107  A    between atoms: _266  and  _269
REMARK  108  A    between atoms: _272  and  _274
REMARK  109  A    between atoms: _274  and  _275
REMARK  110  A    between atoms: _274  and  _277
REMARK  111  A    between atoms: _277  and  _278
REMARK                            x       y       z     vdW  Elec       q    Type
REMARK                         _______ _______ _______ _____ _____    ______ ____
ROOT
ATOM      1  C   GLU A   1      11.684  13.069  33.225  0.00  0.00    +0.238 C 
ATOM      2  O   GLU A   1      10.991  12.181  33.729  0.00  0.00    -0.274 OA
ATOM      3  N   TYR A   2      11.564  13.441  31.950  0.00  0.00    -0.298 N 
ATOM      4  H   TYR A   2      12.145  14.229  31.600  0.00  0.00    +0.150 HD
ENDROOT
BRANCH   1   5
ATOM      5  CA  GLU A   1      12.733  13.801  34.079  0.00  0.00    +0.145 C 
BRANCH   5   6
ATOM      6  N   GLU A   1      13.728  14.542  33.295  0.00  0.00    -0.238 NA
ATOM      7  H   GLU A   1      13.691  15.581  33.281  0.00  0.00    +0.142 HD
ENDBRANCH   5   6
BRANCH   5   8
ATOM      8  CB  GLU A   1      12.048  14.716  35.115  0.00  0.00    +0.038 C 
BRANCH   8   9
ATOM      9  CG  GLU A   1      10.972  15.666  34.587  0.00  0.00    +0.116 C 
BRANCH   9  10
ATOM     10  CD  GLU A   1      11.513  16.989  34.070  0.00  0.00    +0.365 C 
ATOM     11  OE2 GLU A   1      10.743  17.974  34.064  0.00  0.00    -0.246 OA
ATOM     12  OE1 GLU A   1      12.696  17.053  33.669  0.00  0.00    -0.246 OA
ENDBRANCH   9  10
ENDBRANCH   8   9
ENDBRANCH   5   8
ENDBRANCH   1   5
BRANCH   3  13
ATOM     13  CA  TYR A   2      10.638  12.774  31.023  0.00  0.00    +0.141 C 
BRANCH  13  14
ATOM     14  C   TYR A   2      11.347  11.906  29.987  0.00  0.00    +0.227 C 
ATOM     15  O   TYR A   2      10.702  11.115  29.294  0.00  0.00    -0.286 OA
ENDBRANCH  13  14
BRANCH  13  16
ATOM     16  CB  TYR A   2       9.785  13.813  30.293  0.00  0.00    +0.054 C 
BRANCH  16  17
ATOM     17  CG  TYR A   2       8.810  14.529  31.191  0.00  0.00    -0.020 A 
ATOM     18  CD2 TYR A   2       7.698  13.871  31.701  0.00  0.00    -0.001 A 
ATOM     19  CE2 TYR A   2       6.800  14.519  32.531  0.00  0.00    +0.036 A 
ATOM     20  CZ  TYR A   2       7.008  15.848  32.856  0.00  0.00    +0.134 A 
ATOM     21  CE1 TYR A   2       8.105  16.524  32.360  0.00  0.00    +0.036 A 
ATOM     22  CD1 TYR A   2       8.999  15.865  31.535  0.00  0.00    -0.001 A 
BRANCH  20  23
ATOM     23  OH  TYR A   2       6.118  16.498  33.678  0.00  0.00    -0.506 OA
ATOM     24  HH  TYR A   2       5.397  15.873  33.941  0.00  0.00    +0.292 HD
ENDBRANCH  20  23
ENDBRANCH  16  17
ENDBRANCH  13  16
ENDBRANCH   3  13
TORSDOF 10
REMARK  Name = ../refined-set-2016/4jwk/4jwk_pocket.pdb
REMARK  111 active torsions:
REMARK  status: ('A' for Active; 'I' for Inactive)
REMARK    1  A    between atoms: _1  and  _3
REMARK    2  A    between atoms: _3  and  _4
REMARK    3  A    between atoms: _3  and  _6
REMARK    4  A    between atoms: _6  and  _7
REMARK    5  A    between atoms: _10  and  _12
REMARK    6  A    between atoms: _12  and  _13
REMARK    7  A    between atoms: _15  and  _17
REMARK    8  A    between atoms: _17  and  _18
REMARK    9  A    between atoms: _17  and  _20
REMARK   10  A    between atoms: _20  and  _21
REMARK   11  A    between atoms: _27  and  _28
REMARK   12  A    between atoms: _33  and  _35
REMARK   13  A    between atoms: _35  and  _36
REMARK   14  A    between atoms: _35  and  _38
REMARK   15  A    between atoms: _38  and  _39
REMARK   16  A    between atoms: _39  and  _40
REMARK   17  A    between atoms: _43  and  _45
REMARK   18  A    between atoms: _45  and  _46
REMARK   19  A    between atoms: _45  and  _48
REMARK   20  A    between atoms: _48  and  _49
REMARK   21  A    between atoms: _54  and  _55
REMARK   22  A    between atoms: _57  and  _59
REMARK   23  A    between atoms: _59  and  _60
REMARK   24  A    between atoms: _59  and  _62
REMARK   25  A    between atoms: _62  and  _63
REMARK   26  A    between atoms: _68  and  _70
REMARK   27  A    between atoms: _70  and  _71
REMARK   28  A    between atoms: _70  and  _73
REMARK   29  A    between atoms: _73  and  _74
REMARK   30  A    between atoms: _77  and  _79
REMARK   31  A    between atoms: _79  and  _80
REMARK   32  A    between atoms: _79  and  _82
REMARK   33  A    between atoms: _82  and  _83
REMARK   34  A    between atoms: _88  and  _89
REMARK   35  A    between atoms: _91  and  _93
REMARK   36  A    between atoms: _93  and  _94
REMARK   37  A    between atoms: _93  and  _96
REMARK   38  A    between atoms: _96  and  _97
REMARK   39  A    between atoms: _97  and  _98
REMARK   40  A    between atoms: _100  and  _102
REMARK   41  A    between atoms: _102  and  _103
REMARK   42  A    between atoms: _102  and  _105
REMARK   43  A    between atoms: _105  and  _106
REMARK   44  A    between atoms: _111  and  _113
REMARK   45  A    between atoms: _113  and  _114
REMARK   46  A    between atoms: _113  and  _116
REMARK   47  A    between atoms: _116  and  _117
REMARK   48  A    between atoms: _117  and  _118
REMARK   49  A    between atoms: _118  and  _119
REMARK   50  A    between atoms: _128  and  _130
REMARK   51  A    between atoms: _130  and  _131
REMARK   52  A    between atoms: _130  and  _133
REMARK   53  A    between atoms: _133  and  _134
REMARK   54  A    between atoms: _136  and  _138
REMARK   55  A    between atoms: _138  and  _139
REMARK   56  A    between atoms: _138  and  _141
REMARK   57  A    between atoms: _141  and  _142
REMARK   58  A    between atoms: _145  and  _147
REMARK   59  A    between atoms: _147  and  _148
REMARK   60  A    between atoms: _147  and  _150
REMARK   61  A    between atoms: _150  and  _151
REMARK   62  A    between atoms: _154  and  _156
REMARK   63  A    between atoms: _156  and  _157
REMARK   64  A    between atoms: _156  and  _159
REMARK   65  A    between atoms: _159  and  _160
REMARK   66  A    between atoms: _165  and  _167
REMARK   67  A    between atoms: _167  and  _168
REMARK   68  A    between atoms: _170  and  _172
REMARK   69  A    between atoms: _172  and  _173
REMARK   70  A    between atoms: _172  and  _175
REMARK   71  A    between atoms: _175  and  _176
REMARK   72  A    between atoms: _181  and  _183
REMARK   73  A    between atoms: _183  and  _184
REMARK   74  A    between atoms: _183  and  _186
REMARK   75  A    between atoms: _186  and  _187
REMARK   76  A    between atoms: _192  and  _194
REMARK   77  A    between atoms: _194  and  _195
REMARK   78  A    between atoms: _197  and  _199
REMARK   79  A    between atoms: _199  and  _200
REMARK   80  A    between atoms: _199  and  _202
REMARK   81  A    between atoms: _202  and  _203
REMARK   82  A    between atoms: _206  and  _208
REMARK   83  A    between atoms: _208  and  _209
REMARK   84  A    between atoms: _208  and  _211
REMARK   85  A    between atoms: _211  and  _212
REMARK   86  A    between atoms: _212  and  _213
REMARK   87  A    between atoms: _213  and  _214
REMARK   88  A    between atoms: _223  and  _225
REMARK   89  A    between atoms: _225  and  _226
REMARK   90  A    between atoms: _225  and  _228
REMARK   91  A    between atoms: _228  and  _229
REMARK   92  A    between atoms: _232  and  _234
REMARK   93  A    between atoms: _234  and  _235
REMARK   94  A    between atoms: _234  and  _237
REMARK   95  A    between atoms: _240  and  _242
REMARK   96  A    between atoms: _242  and  _243
REMARK   97  A    between atoms: _242  and  _245
REMARK   98  A    between atoms: _245  and  _246
REMARK   99  A    between atoms: _248  and  _250
REMARK  100  A    between atoms: _250  and  _251
REMARK  101  A    between atoms: _253  and  _255
REMARK  102  A    between atoms: _255  and  _256
REMARK  103  A    between atoms: _255  and  _258
REMARK  104  A    between atoms: _258  and  _259
REMARK  105  A    between atoms: _264  and  _266
REMARK  106  A    between atoms: _266  and  _267
REMARK  107  A    between atoms: _266  and  _269
REMARK  108  A    between atoms: _272  and  _274
REMARK  109  A    between atoms: _274  and  _275
REMARK  110  A    between atoms: _274  and  _277
REMARK  111  A    between atoms: _277  and  _278
REMARK                            x       y       z     vdW  Elec       q    Type
REMARK                         _______ _______ _______ _____ _____    ______ ____
ROOT
ATOM      1  CB  HIS A   1       4.802  10.076  27.191  0.00  0.00    +0.072 C 
ENDROOT
BRANCH   1   2
ATOM      2  CG  HIS A   1       3.486  10.538  26.655  0.00  0.00    +0.082 A 
ATOM      3  CD2 HIS A   1       2.842  11.723  26.769  0.00  0.00    +0.115 A 
ATOM      4  NE2 HIS A   1       1.647  11.595  26.102  0.00  0.00    -0.221 NA
ATOM      5  CE1 HIS A   1       1.553  10.376  25.611  0.00  0.00    +0.199 A 
ATOM      6  ND1 HIS A   1       2.648   9.718  25.934  0.00  0.00    -0.227 NA
ENDBRANCH   1   2
BRANCH   1   7
ATOM      7  CA  HIS A   1       5.463   8.971  26.357  0.00  0.00    +0.139 C 
BRANCH   7   8
ATOM      8  N   HIS A   1       6.007   7.929  27.227  0.00  0.00    -0.239 NA
ATOM      9  H   HIS A   1       6.024   8.092  28.254  0.00  0.00    +0.142 HD
ENDBRANCH   7   8
BRANCH   7  10
ATOM     10  C   HIS A   1       6.520   9.586  25.440  0.00  0.00    +0.224 C 
ATOM     11  O   HIS A   1       6.179  10.333  24.521  0.00  0.00    -0.287 OA
ENDBRANCH   7  10
ENDBRANCH   1   7
TORSDOF 4
REMARK  Name = ../refined-set-2016/4jwk/4jwk_pocket.pdb
REMARK  111 active torsions:
REMARK  status: ('A' for Active; 'I' for Inactive)
REMARK    1  A    between atoms: _1  and  _3
REMARK    2  A    between atoms: _3  and  _4
REMARK    3  A    between atoms: _3  and  _6
REMARK    4  A    between atoms: _6  and  _7
REMARK    5  A    between atoms: _10  and  _12
REMARK    6  A    between atoms: _12  and  _13
REMARK    7  A    between atoms: _15  and  _17
REMARK    8  A    between atoms: _17  and  _18
REMARK    9  A    between atoms: _17  and  _20
REMARK   10  A    between atoms: _20  and  _21
REMARK   11  A    between atoms: _27  and  _28
REMARK   12  A    between atoms: _33  and  _35
REMARK   13  A    between atoms: _35  and  _36
REMARK   14  A    between atoms: _35  and  _38
REMARK   15  A    between atoms: _38  and  _39
REMARK   16  A    between atoms: _39  and  _40
REMARK   17  A    between atoms: _43  and  _45
REMARK   18  A    between atoms: _45  and  _46
REMARK   19  A    between atoms: _45  and  _48
REMARK   20  A    between atoms: _48  and  _49
REMARK   21  A    between atoms: _54  and  _55
REMARK   22  A    between atoms: _57  and  _59
REMARK   23  A    between atoms: _59  and  _60
REMARK   24  A    between atoms: _59  and  _62
REMARK   25  A    between atoms: _62  and  _63
REMARK   26  A    between atoms: _68  and  _70
REMARK   27  A    between atoms: _70  and  _71
REMARK   28  A    between atoms: _70  and  _73
REMARK   29  A    between atoms: _73  and  _74
REMARK   30  A    between atoms: _77  and  _79
REMARK   31  A    between atoms: _79  and  _80
REMARK   32  A    between atoms: _79  and  _82
REMARK   33  A    between atoms: _82  and  _83
REMARK   34  A    between atoms: _88  and  _89
REMARK   35  A    between atoms: _91  and  _93
REMARK   36  A    between atoms: _93  and  _94
REMARK   37  A    between atoms: _93  and  _96
REMARK   38  A    between atoms: _96  and  _97
REMARK   39  A    between atoms: _97  and  _98
REMARK   40  A    between atoms: _100  and  _102
REMARK   41  A    between atoms: _102  and  _103
REMARK   42  A    between atoms: _102  and  _105
REMARK   43  A    between atoms: _105  and  _106
REMARK   44  A    between atoms: _111  and  _113
REMARK   45  A    between atoms: _113  and  _114
REMARK   46  A    between atoms: _113  and  _116
REMARK   47  A    between atoms: _116  and  _117
REMARK   48  A    between atoms: _117  and  _118
REMARK   49  A    between atoms: _118  and  _119
REMARK   50  A    between atoms: _128  and  _130
REMARK   51  A    between atoms: _130  and  _131
REMARK   52  A    between atoms: _130  and  _133
REMARK   53  A    between atoms: _133  and  _134
REMARK   54  A    between atoms: _136  and  _138
REMARK   55  A    between atoms: _138  and  _139
REMARK   56  A    between atoms: _138  and  _141
REMARK   57  A    between atoms: _141  and  _142
REMARK   58  A    between atoms: _145  and  _147
REMARK   59  A    between atoms: _147  and  _148
REMARK   60  A    between atoms: _147  and  _150
REMARK   61  A    between atoms: _150  and  _151
REMARK   62  A    between atoms: _154  and  _156
REMARK   63  A    between atoms: _156  and  _157
REMARK   64  A    between atoms: _156  and  _159
REMARK   65  A    between atoms: _159  and  _160
REMARK   66  A    between atoms: _165  and  _167
REMARK   67  A    between atoms: _167  and  _168
REMARK   68  A    between atoms: _170  and  _172
REMARK   69  A    between atoms: _172  and  _173
REMARK   70  A    between atoms: _172  and  _175
REMARK   71  A    between atoms: _175  and  _176
REMARK   72  A    between atoms: _181  and  _183
REMARK   73  A    between atoms: _183  and  _184
REMARK   74  A    between atoms: _183  and  _186
REMARK   75  A    between atoms: _186  and  _187
REMARK   76  A    between atoms: _192  and  _194
REMARK   77  A    between atoms: _194  and  _195
REMARK   78  A    between atoms: _197  and  _199
REMARK   79  A    between atoms: _199  and  _200
REMARK   80  A    between atoms: _199  and  _202
REMARK   81  A    between atoms: _202  and  _203
REMARK   82  A    between atoms: _206  and  _208
REMARK   83  A    between atoms: _208  and  _209
REMARK   84  A    between atoms: _208  and  _211
REMARK   85  A    between atoms: _211  and  _212
REMARK   86  A    between atoms: _212  and  _213
REMARK   87  A    between atoms: _213  and  _214
REMARK   88  A    between atoms: _223  and  _225
REMARK   89  A    between atoms: _225  and  _226
REMARK   90  A    between atoms: _225  and  _228
REMARK   91  A    between atoms: _228  and  _229
REMARK   92  A    between atoms: _232  and  _234
REMARK   93  A    between atoms: _234  and  _235
REMARK   94  A    between atoms: _234  and  _237
REMARK   95  A    between atoms: _240  and  _242
REMARK   96  A    between atoms: _242  and  _243
REMARK   97  A    between atoms: _242  and  _245
REMARK   98  A    between atoms: _245  and  _246
REMARK   99  A    between atoms: _248  and  _250
REMARK  100  A    between atoms: _250  and  _251
REMARK  101  A    between atoms: _253  and  _255
REMARK  102  A    between atoms: _255  and  _256
REMARK  103  A    between atoms: _255  and  _258
REMARK  104  A    between atoms: _258  and  _259
REMARK  105  A    between atoms: _264  and  _266
REMARK  106  A    between atoms: _266  and  _267
REMARK  107  A    between atoms: _266  and  _269
REMARK  108  A    between atoms: _272  and  _274
REMARK  109  A    between atoms: _274  and  _275
REMARK  110  A    between atoms: _274  and  _277
REMARK  111  A    between atoms: _277  and  _278
REMARK                            x       y       z     vdW  Elec       q    Type
REMARK                         _______ _______ _______ _____ _____    ______ ____
ROOT
ATOM      1  C   MET A   3       2.090  17.405  23.916  0.00  0.00    +0.241 C 
ATOM      2  N   ASN A   4       1.274  17.944  24.816  0.00  0.00    -0.297 N 
ATOM      3  H   ASN A   4       1.585  18.053  25.802  0.00  0.00    +0.150 HD
ATOM      4  O   MET A   3       1.812  17.355  22.721  0.00  0.00    -0.273 OA
ENDROOT
BRANCH   2   5
ATOM      5  CA  ASN A   4      -0.062  18.383  24.415  0.00  0.00    +0.158 C 
BRANCH   5   6
ATOM      6  C   ASN A   4      -0.075  19.700  23.634  0.00  0.00    +0.241 C 
ATOM      7  N   ARG A   5       1.104  20.289  23.443  0.00  0.00    -0.297 N 
ATOM      8  H   ARG A   5       1.943  19.886  23.908  0.00  0.00    +0.150 HD
ATOM      9  O   ASN A   4      -1.134  20.145  23.191  0.00  0.00    -0.273 OA
BRANCH   7  10
ATOM     10  CA  ARG A   5       1.270  21.475  22.609  0.00  0.00    +0.149 C 
BRANCH  10  11
ATOM     11  C   ARG A   5       2.182  21.208  21.404  0.00  0.00    +0.241 C 
ATOM     12  N   SER A   6       2.343  19.934  21.035  0.00  0.00    -0.296 N 
ATOM     13  H   SER A   6       1.815  19.197  21.544  0.00  0.00    +0.150 HD
ATOM     14  O   ARG A   5       2.717  22.150  20.813  0.00  0.00    -0.273 OA
BRANCH  12  15
ATOM     15  CA  SER A   6       3.241  19.530  19.932  0.00  0.00    +0.166 C 
BRANCH  15  16
ATOM     16  C   SER A   6       2.961  20.256  18.614  0.00  0.00    +0.229 C 
ATOM     17  O   SER A   6       3.877  20.500  17.829  0.00  0.00    -0.286 OA
ENDBRANCH  15  16
BRANCH  15  18
ATOM     18  CB  SER A   6       3.152  18.023  19.687  0.00  0.00    +0.165 C 
BRANCH  18  19
ATOM     19  OG  SER A   6       3.635  17.292  20.796  0.00  0.00    -0.380 OA
ATOM     20  H   SER A   6       3.096  17.514  21.596  0.00  0.00    +0.211 HD
ENDBRANCH  18  19
ENDBRANCH  15  18
ENDBRANCH  12  15
ENDBRANCH  10  11
BRANCH  10  21
ATOM     21  CB  ARG A   5       1.840  22.614  23.455  0.00  0.00    +0.033 C 
BRANCH  21  22
ATOM     22  CG  ARG A   5       0.924  23.053  24.584  0.00  0.00    +0.045 C 
BRANCH  22  23
ATOM     23  CD  ARG A   5       1.647  24.013  25.505  0.00  0.00    +0.174 C 
BRANCH  23  24
ATOM     24  NE  ARG A   5       0.749  24.611  26.490  0.00  0.00    -0.265 N 
ATOM     25  CZ  ARG A   5       1.030  25.700  27.204  0.00  0.00    +0.342 C 
ATOM     26  NH2 ARG A   5       0.140  26.168  28.075  0.00  0.00    -0.292 N 
ATOM     27 HH21 ARG A   5       0.357  27.018  28.634  0.00  0.00    +0.255 HD
ATOM     28 HH22 ARG A   5      -0.772  25.684  28.197  0.00  0.00    +0.255 HD
ATOM     29  NH1 ARG A   5       2.193  26.327  27.054  0.00  0.00    -0.292 N 
ATOM     30 HH11 ARG A   5       2.402  27.176  27.616  0.00  0.00    +0.255 HD
ATOM     31 HH12 ARG A   5       2.893  25.968  26.374  0.00  0.00    +0.255 HD
ATOM     32  HE  ARG A   5      -0.173  24.155  26.644  0.00  0.00    +0.259 HD
ENDBRANCH  23  24
ENDBRANCH  22  23
ENDBRANCH  21  22
ENDBRANCH  10  21
ENDBRANCH   7  10
ENDBRANCH   5   6
BRANCH   5  33
ATOM     33  CB  ASN A   4      -1.048  18.387  25.598  0.00  0.00    +0.114 C 
BRANCH  33  34
ATOM     34  CG  ASN A   4      -0.720  19.413  26.664  0.00  0.00    +0.222 C 
ATOM     35  ND2 ASN A   4      -1.484  19.372  27.756  0.00  0.00    -0.329 N 
ATOM     36 HD21 ASN A   4      -1.320  20.046  28.531  0.00  0.00    +0.145 HD
ATOM     37 HD22 ASN A   4      -2.244  18.666  27.833  0.00  0.00    +0.145 HD
ATOM     38  OD1 ASN A   4       0.192  20.229  26.524  0.00  0.00    -0.275 OA
ENDBRANCH  33  34
ENDBRANCH   5  33
ENDBRANCH   2   5
BRANCH   1  39
ATOM     39  CA  MET A   3       3.403  16.814  24.419  0.00  0.00    +0.149 C 
BRANCH  39  41
ATOM     40  C   TYR A   2       4.463  18.920  25.048  0.00  0.00    +0.241 C 
ATOM     41  N   MET A   3       4.136  17.671  25.343  0.00  0.00    -0.297 N 
ATOM     42  H   MET A   3       4.413  17.287  26.269  0.00  0.00    +0.150 HD
ATOM     43  O   TYR A   2       3.991  19.541  24.094  0.00  0.00    -0.273 OA
BRANCH  40  44
ATOM     44  CA  TYR A   2       5.486  19.553  25.977  0.00  0.00    +0.153 C 
BRANCH  44  47
ATOM     45  C   THR A   1       5.851  21.722  24.836  0.00  0.00    +0.241 C 
ATOM     46  O   THR A   1       4.938  22.329  25.387  0.00  0.00    -0.274 OA
ATOM     47  N   TYR A   2       6.285  20.524  25.225  0.00  0.00    -0.297 N 
ATOM     48  H   TYR A   2       7.260  20.259  24.977  0.00  0.00    +0.150 HD
BRANCH  45  49
ATOM     49  CA  THR A   1       6.572  22.350  23.646  0.00  0.00    +0.172 C 
BRANCH  49  50
ATOM     50  N   THR A   1       7.729  21.584  23.215  0.00  0.00    -0.236 NA
ATOM     51  H   THR A   1       7.571  20.782  22.572  0.00  0.00    +0.142 HD
ENDBRANCH  49  50
BRANCH  49  52
ATOM     52  CB  THR A   1       5.540  22.389  22.508  0.00  0.00    +0.135 C 
ATOM     53  CG2 THR A   1       6.051  23.201  21.327  0.00  0.00    +0.034 C 
BRANCH  52  54
ATOM     54  OG1 THR A   1       5.276  21.049  22.074  0.00  0.00    -0.383 OA
ATOM     55  HG1 THR A   1       4.919  20.522  22.832  0.00  0.00    +0.210 HD
ENDBRANCH  52  54
ENDBRANCH  49  52
ENDBRANCH  45  49
ENDBRANCH  44  47
BRANCH  44  56
ATOM     56  CB  TYR A   2       4.832  20.137  27.241  0.00  0.00    +0.055 C 
BRANCH  56  57
ATOM     57  CG  TYR A   2       5.863  20.483  28.284  0.00  0.00    -0.020 A 
ATOM     58  CD2 TYR A   2       6.374  19.507  29.127  0.00  0.00    -0.001 A 
ATOM     59  CE2 TYR A   2       7.338  19.810  30.077  0.00  0.00    +0.036 A 
ATOM     60  CZ  TYR A   2       7.803  21.105  30.183  0.00  0.00    +0.134 A 
ATOM     61  CE1 TYR A   2       7.318  22.095  29.347  0.00  0.00    +0.036 A 
ATOM     62  CD1 TYR A   2       6.358  21.779  28.399  0.00  0.00    -0.001 A 
BRANCH  60  63
ATOM     63  OH  TYR A   2       8.764  21.409  31.124  0.00  0.00    -0.506 OA
ATOM     64  HH  TYR A   2       8.996  20.592  31.633  0.00  0.00    +0.292 HD
ENDBRANCH  60  63
ENDBRANCH  56  57
ENDBRANCH  44  56
ENDBRANCH  40  44
ENDBRANCH  39  41
BRANCH  39  65
ATOM     65  CB  MET A   3       3.122  15.468  25.076  0.00  0.00    +0.041 C 
BRANCH  65  66
ATOM     66  CG  MET A   3       2.402  14.485  24.176  0.00  0.00    +0.060 C 
BRANCH  66  67
ATOM     67  SD  MET A   3       3.414  13.957  22.796  0.00  0.00    -0.139 S 
ATOM     68  CE  MET A   3       4.247  12.552  23.521  0.00  0.00    +0.069 C 
ENDBRANCH  66  67
ENDBRANCH  65  66
ENDBRANCH  39  65
ENDBRANCH   1  39
TORSDOF 28
REMARK  Name = ../refined-set-2016/4jwk/4jwk_pocket.pdb
REMARK  111 active torsions:
REMARK  status: ('A' for Active; 'I' for Inactive)
REMARK    1  A    between atoms: _1  and  _3
REMARK    2  A    between atoms: _3  and  _4
REMARK    3  A    between atoms: _3  and  _6
REMARK    4  A    between atoms: _6  and  _7
REMARK    5  A    between atoms: _10  and  _12
REMARK    6  A    between atoms: _12  and  _13
REMARK    7  A    between atoms: _15  and  _17
REMARK    8  A    between atoms: _17  and  _18
REMARK    9  A    between atoms: _17  and  _20
REMARK   10  A    between atoms: _20  and  _21
REMARK   11  A    between atoms: _27  and  _28
REMARK   12  A    between atoms: _33  and  _35
REMARK   13  A    between atoms: _35  and  _36
REMARK   14  A    between atoms: _35  and  _38
REMARK   15  A    between atoms: _38  and  _39
REMARK   16  A    between atoms: _39  and  _40
REMARK   17  A    between atoms: _43  and  _45
REMARK   18  A    between atoms: _45  and  _46
REMARK   19  A    between atoms: _45  and  _48
REMARK   20  A    between atoms: _48  and  _49
REMARK   21  A    between atoms: _54  and  _55
REMARK   22  A    between atoms: _57  and  _59
REMARK   23  A    between atoms: _59  and  _60
REMARK   24  A    between atoms: _59  and  _62
REMARK   25  A    between atoms: _62  and  _63
REMARK   26  A    between atoms: _68  and  _70
REMARK   27  A    between atoms: _70  and  _71
REMARK   28  A    between atoms: _70  and  _73
REMARK   29  A    between atoms: _73  and  _74
REMARK   30  A    between atoms: _77  and  _79
REMARK   31  A    between atoms: _79  and  _80
REMARK   32  A    between atoms: _79  and  _82
REMARK   33  A    between atoms: _82  and  _83
REMARK   34  A    between atoms: _88  and  _89
REMARK   35  A    between atoms: _91  and  _93
REMARK   36  A    between atoms: _93  and  _94
REMARK   37  A    between atoms: _93  and  _96
REMARK   38  A    between atoms: _96  and  _97
REMARK   39  A    between atoms: _97  and  _98
REMARK   40  A    between atoms: _100  and  _102
REMARK   41  A    between atoms: _102  and  _103
REMARK   42  A    between atoms: _102  and  _105
REMARK   43  A    between atoms: _105  and  _106
REMARK   44  A    between atoms: _111  and  _113
REMARK   45  A    between atoms: _113  and  _114
REMARK   46  A    between atoms: _113  and  _116
REMARK   47  A    between atoms: _116  and  _117
REMARK   48  A    between atoms: _117  and  _118
REMARK   49  A    between atoms: _118  and  _119
REMARK   50  A    between atoms: _128  and  _130
REMARK   51  A    between atoms: _130  and  _131
REMARK   52  A    between atoms: _130  and  _133
REMARK   53  A    between atoms: _133  and  _134
REMARK   54  A    between atoms: _136  and  _138
REMARK   55  A    between atoms: _138  and  _139
REMARK   56  A    between atoms: _138  and  _141
REMARK   57  A    between atoms: _141  and  _142
REMARK   58  A    between atoms: _145  and  _147
REMARK   59  A    between atoms: _147  and  _148
REMARK   60  A    between atoms: _147  and  _150
REMARK   61  A    between atoms: _150  and  _151
REMARK   62  A    between atoms: _154  and  _156
REMARK   63  A    between atoms: _156  and  _157
REMARK   64  A    between atoms: _156  and  _159
REMARK   65  A    between atoms: _159  and  _160
REMARK   66  A    between atoms: _165  and  _167
REMARK   67  A    between atoms: _167  and  _168
REMARK   68  A    between atoms: _170  and  _172
REMARK   69  A    between atoms: _172  and  _173
REMARK   70  A    between atoms: _172  and  _175
REMARK   71  A    between atoms: _175  and  _176
REMARK   72  A    between atoms: _181  and  _183
REMARK   73  A    between atoms: _183  and  _184
REMARK   74  A    between atoms: _183  and  _186
REMARK   75  A    between atoms: _186  and  _187
REMARK   76  A    between atoms: _192  and  _194
REMARK   77  A    between atoms: _194  and  _195
REMARK   78  A    between atoms: _197  and  _199
REMARK   79  A    between atoms: _199  and  _200
REMARK   80  A    between atoms: _199  and  _202
REMARK   81  A    between atoms: _202  and  _203
REMARK   82  A    between atoms: _206  and  _208
REMARK   83  A    between atoms: _208  and  _209
REMARK   84  A    between atoms: _208  and  _211
REMARK   85  A    between atoms: _211  and  _212
REMARK   86  A    between atoms: _212  and  _213
REMARK   87  A    between atoms: _213  and  _214
REMARK   88  A    between atoms: _223  and  _225
REMARK   89  A    between atoms: _225  and  _226
REMARK   90  A    between atoms: _225  and  _228
REMARK   91  A    between atoms: _228  and  _229
REMARK   92  A    between atoms: _232  and  _234
REMARK   93  A    between atoms: _234  and  _235
REMARK   94  A    between atoms: _234  and  _237
REMARK   95  A    between atoms: _240  and  _242
REMARK   96  A    between atoms: _242  and  _243
REMARK   97  A    between atoms: _242  and  _245
REMARK   98  A    between atoms: _245  and  _246
REMARK   99  A    between atoms: _248  and  _250
REMARK  100  A    between atoms: _250  and  _251
REMARK  101  A    between atoms: _253  and  _255
REMARK  102  A    between atoms: _255  and  _256
REMARK  103  A    between atoms: _255  and  _258
REMARK  104  A    between atoms: _258  and  _259
REMARK  105  A    between atoms: _264  and  _266
REMARK  106  A    between atoms: _266  and  _267
REMARK  107  A    between atoms: _266  and  _269
REMARK  108  A    between atoms: _272  and  _274
REMARK  109  A    between atoms: _274  and  _275
REMARK  110  A    between atoms: _274  and  _277
REMARK  111  A    between atoms: _277  and  _278
REMARK                            x       y       z     vdW  Elec       q    Type
REMARK                         _______ _______ _______ _____ _____    ______ ____
ROOT
ATOM      1  CA  ASP A   1       3.883   5.950  21.782  0.00  0.00    +0.144 C 
ENDROOT
BRANCH   1   2
ATOM      2  N   ASP A   1       4.293   7.057  20.925  0.00  0.00    -0.239 NA
ATOM      3  H   ASP A   1       4.519   7.973  21.362  0.00  0.00    +0.142 HD
ENDBRANCH   1   2
BRANCH   1   4
ATOM      4  C   ASP A   1       2.427   5.573  21.525  0.00  0.00    +0.225 C 
ATOM      5  O   ASP A   1       1.572   6.435  21.281  0.00  0.00    -0.287 OA
ENDBRANCH   1   4
BRANCH   1   6
ATOM      6  CB  ASP A   1       4.082   6.293  23.258  0.00  0.00    +0.139 C 
BRANCH   6   7
ATOM      7  CG  ASP A   1       3.389   7.577  23.664  0.00  0.00    +0.367 C 
ATOM      8  OD2 ASP A   1       2.626   7.550  24.653  0.00  0.00    -0.246 OA
ATOM      9  OD1 ASP A   1       3.626   8.628  23.018  0.00  0.00    -0.246 OA
ENDBRANCH   6   7
ENDBRANCH   1   6
TORSDOF 4
REMARK  Name = ../refined-set-2016/4jwk/4jwk_pocket.pdb
REMARK  111 active torsions:
REMARK  status: ('A' for Active; 'I' for Inactive)
REMARK    1  A    between atoms: _1  and  _3
REMARK    2  A    between atoms: _3  and  _4
REMARK    3  A    between atoms: _3  and  _6
REMARK    4  A    between atoms: _6  and  _7
REMARK    5  A    between atoms: _10  and  _12
REMARK    6  A    between atoms: _12  and  _13
REMARK    7  A    between atoms: _15  and  _17
REMARK    8  A    between atoms: _17  and  _18
REMARK    9  A    between atoms: _17  and  _20
REMARK   10  A    between atoms: _20  and  _21
REMARK   11  A    between atoms: _27  and  _28
REMARK   12  A    between atoms: _33  and  _35
REMARK   13  A    between atoms: _35  and  _36
REMARK   14  A    between atoms: _35  and  _38
REMARK   15  A    between atoms: _38  and  _39
REMARK   16  A    between atoms: _39  and  _40
REMARK   17  A    between atoms: _43  and  _45
REMARK   18  A    between atoms: _45  and  _46
REMARK   19  A    between atoms: _45  and  _48
REMARK   20  A    between atoms: _48  and  _49
REMARK   21  A    between atoms: _54  and  _55
REMARK   22  A    between atoms: _57  and  _59
REMARK   23  A    between atoms: _59  and  _60
REMARK   24  A    between atoms: _59  and  _62
REMARK   25  A    between atoms: _62  and  _63
REMARK   26  A    between atoms: _68  and  _70
REMARK   27  A    between atoms: _70  and  _71
REMARK   28  A    between atoms: _70  and  _73
REMARK   29  A    between atoms: _73  and  _74
REMARK   30  A    between atoms: _77  and  _79
REMARK   31  A    between atoms: _79  and  _80
REMARK   32  A    between atoms: _79  and  _82
REMARK   33  A    between atoms: _82  and  _83
REMARK   34  A    between atoms: _88  and  _89
REMARK   35  A    between atoms: _91  and  _93
REMARK   36  A    between atoms: _93  and  _94
REMARK   37  A    between atoms: _93  and  _96
REMARK   38  A    between atoms: _96  and  _97
REMARK   39  A    between atoms: _97  and  _98
REMARK   40  A    between atoms: _100  and  _102
REMARK   41  A    between atoms: _102  and  _103
REMARK   42  A    between atoms: _102  and  _105
REMARK   43  A    between atoms: _105  and  _106
REMARK   44  A    between atoms: _111  and  _113
REMARK   45  A    between atoms: _113  and  _114
REMARK   46  A    between atoms: _113  and  _116
REMARK   47  A    between atoms: _116  and  _117
REMARK   48  A    between atoms: _117  and  _118
REMARK   49  A    between atoms: _118  and  _119
REMARK   50  A    between atoms: _128  and  _130
REMARK   51  A    between atoms: _130  and  _131
REMARK   52  A    between atoms: _130  and  _133
REMARK   53  A    between atoms: _133  and  _134
REMARK   54  A    between atoms: _136  and  _138
REMARK   55  A    between atoms: _138  and  _139
REMARK   56  A    between atoms: _138  and  _141
REMARK   57  A    between atoms: _141  and  _142
REMARK   58  A    between atoms: _145  and  _147
REMARK   59  A    between atoms: _147  and  _148
REMARK   60  A    between atoms: _147  and  _150
REMARK   61  A    between atoms: _150  and  _151
REMARK   62  A    between atoms: _154  and  _156
REMARK   63  A    between atoms: _156  and  _157
REMARK   64  A    between atoms: _156  and  _159
REMARK   65  A    between atoms: _159  and  _160
REMARK   66  A    between atoms: _165  and  _167
REMARK   67  A    between atoms: _167  and  _168
REMARK   68  A    between atoms: _170  and  _172
REMARK   69  A    between atoms: _172  and  _173
REMARK   70  A    between atoms: _172  and  _175
REMARK   71  A    between atoms: _175  and  _176
REMARK   72  A    between atoms: _181  and  _183
REMARK   73  A    between atoms: _183  and  _184
REMARK   74  A    between atoms: _183  and  _186
REMARK   75  A    between atoms: _186  and  _187
REMARK   76  A    between atoms: _192  and  _194
REMARK   77  A    between atoms: _194  and  _195
REMARK   78  A    between atoms: _197  and  _199
REMARK   79  A    between atoms: _199  and  _200
REMARK   80  A    between atoms: _199  and  _202
REMARK   81  A    between atoms: _202  and  _203
REMARK   82  A    between atoms: _206  and  _208
REMARK   83  A    between atoms: _208  and  _209
REMARK   84  A    between atoms: _208  and  _211
REMARK   85  A    between atoms: _211  and  _212
REMARK   86  A    between atoms: _212  and  _213
REMARK   87  A    between atoms: _213  and  _214
REMARK   88  A    between atoms: _223  and  _225
REMARK   89  A    between atoms: _225  and  _226
REMARK   90  A    between atoms: _225  and  _228
REMARK   91  A    between atoms: _228  and  _229
REMARK   92  A    between atoms: _232  and  _234
REMARK   93  A    between atoms: _234  and  _235
REMARK   94  A    between atoms: _234  and  _237
REMARK   95  A    between atoms: _240  and  _242
REMARK   96  A    between atoms: _242  and  _243
REMARK   97  A    between atoms: _242  and  _245
REMARK   98  A    between atoms: _245  and  _246
REMARK   99  A    between atoms: _248  and  _250
REMARK  100  A    between atoms: _250  and  _251
REMARK  101  A    between atoms: _253  and  _255
REMARK  102  A    between atoms: _255  and  _256
REMARK  103  A    between atoms: _255  and  _258
REMARK  104  A    between atoms: _258  and  _259
REMARK  105  A    between atoms: _264  and  _266
REMARK  106  A    between atoms: _266  and  _267
REMARK  107  A    between atoms: _266  and  _269
REMARK  108  A    between atoms: _272  and  _274
REMARK  109  A    between atoms: _274  and  _275
REMARK  110  A    between atoms: _274  and  _277
REMARK  111  A    between atoms: _277  and  _278
REMARK                            x       y       z     vdW  Elec       q    Type
REMARK                         _______ _______ _______ _____ _____    ______ ____
ROOT
ATOM      1  CA  LEU A   1      -1.207   2.471  24.236  0.00  0.00    +0.133 C 
ENDROOT
BRANCH   1   2
ATOM      2  N   LEU A   1      -0.626   3.272  23.155  0.00  0.00    -0.239 NA
ATOM      3  H   LEU A   1      -1.022   4.213  22.957  0.00  0.00    +0.142 HD
ENDBRANCH   1   2
BRANCH   1   4
ATOM      4  C   LEU A   1      -1.854   1.185  23.732  0.00  0.00    +0.224 C 
ATOM      5  O   LEU A   1      -1.818   0.163  24.411  0.00  0.00    -0.287 OA
ENDBRANCH   1   4
BRANCH   1   6
ATOM      6  CB  LEU A   1      -2.256   3.286  24.993  0.00  0.00    +0.025 C 
BRANCH   6   7
ATOM      7  CG  LEU A   1      -1.713   4.364  25.923  0.00  0.00    +0.002 C 
ATOM      8  CD2 LEU A   1      -0.997   3.729  27.109  0.00  0.00    +0.000 C 
ATOM      9  CD1 LEU A   1      -2.842   5.272  26.387  0.00  0.00    +0.000 C 
ENDBRANCH   6   7
ENDBRANCH   1   6
TORSDOF 4
REMARK  Name = ../refined-set-2016/4jwk/4jwk_pocket.pdb
REMARK  111 active torsions:
REMARK  status: ('A' for Active; 'I' for Inactive)
REMARK    1  A    between atoms: _1  and  _3
REMARK    2  A    between atoms: _3  and  _4
REMARK    3  A    between atoms: _3  and  _6
REMARK    4  A    between atoms: _6  and  _7
REMARK    5  A    between atoms: _10  and  _12
REMARK    6  A    between atoms: _12  and  _13
REMARK    7  A    between atoms: _15  and  _17
REMARK    8  A    between atoms: _17  and  _18
REMARK    9  A    between atoms: _17  and  _20
REMARK   10  A    between atoms: _20  and  _21
REMARK   11  A    between atoms: _27  and  _28
REMARK   12  A    between atoms: _33  and  _35
REMARK   13  A    between atoms: _35  and  _36
REMARK   14  A    between atoms: _35  and  _38
REMARK   15  A    between atoms: _38  and  _39
REMARK   16  A    between atoms: _39  and  _40
REMARK   17  A    between atoms: _43  and  _45
REMARK   18  A    between atoms: _45  and  _46
REMARK   19  A    between atoms: _45  and  _48
REMARK   20  A    between atoms: _48  and  _49
REMARK   21  A    between atoms: _54  and  _55
REMARK   22  A    between atoms: _57  and  _59
REMARK   23  A    between atoms: _59  and  _60
REMARK   24  A    between atoms: _59  and  _62
REMARK   25  A    between atoms: _62  and  _63
REMARK   26  A    between atoms: _68  and  _70
REMARK   27  A    between atoms: _70  and  _71
REMARK   28  A    between atoms: _70  and  _73
REMARK   29  A    between atoms: _73  and  _74
REMARK   30  A    between atoms: _77  and  _79
REMARK   31  A    between atoms: _79  and  _80
REMARK   32  A    between atoms: _79  and  _82
REMARK   33  A    between atoms: _82  and  _83
REMARK   34  A    between atoms: _88  and  _89
REMARK   35  A    between atoms: _91  and  _93
REMARK   36  A    between atoms: _93  and  _94
REMARK   37  A    between atoms: _93  and  _96
REMARK   38  A    between atoms: _96  and  _97
REMARK   39  A    between atoms: _97  and  _98
REMARK   40  A    between atoms: _100  and  _102
REMARK   41  A    between atoms: _102  and  _103
REMARK   42  A    between atoms: _102  and  _105
REMARK   43  A    between atoms: _105  and  _106
REMARK   44  A    between atoms: _111  and  _113
REMARK   45  A    between atoms: _113  and  _114
REMARK   46  A    between atoms: _113  and  _116
REMARK   47  A    between atoms: _116  and  _117
REMARK   48  A    between atoms: _117  and  _118
REMARK   49  A    between atoms: _118  and  _119
REMARK   50  A    between atoms: _128  and  _130
REMARK   51  A    between atoms: _130  and  _131
REMARK   52  A    between atoms: _130  and  _133
REMARK   53  A    between atoms: _133  and  _134
REMARK   54  A    between atoms: _136  and  _138
REMARK   55  A    between atoms: _138  and  _139
REMARK   56  A    between atoms: _138  and  _141
REMARK   57  A    between atoms: _141  and  _142
REMARK   58  A    between atoms: _145  and  _147
REMARK   59  A    between atoms: _147  and  _148
REMARK   60  A    between atoms: _147  and  _150
REMARK   61  A    between atoms: _150  and  _151
REMARK   62  A    between atoms: _154  and  _156
REMARK   63  A    between atoms: _156  and  _157
REMARK   64  A    between atoms: _156  and  _159
REMARK   65  A    between atoms: _159  and  _160
REMARK   66  A    between atoms: _165  and  _167
REMARK   67  A    between atoms: _167  and  _168
REMARK   68  A    between atoms: _170  and  _172
REMARK   69  A    between atoms: _172  and  _173
REMARK   70  A    between atoms: _172  and  _175
REMARK   71  A    between atoms: _175  and  _176
REMARK   72  A    between atoms: _181  and  _183
REMARK   73  A    between atoms: _183  and  _184
REMARK   74  A    between atoms: _183  and  _186
REMARK   75  A    between atoms: _186  and  _187
REMARK   76  A    between atoms: _192  and  _194
REMARK   77  A    between atoms: _194  and  _195
REMARK   78  A    between atoms: _197  and  _199
REMARK   79  A    between atoms: _199  and  _200
REMARK   80  A    between atoms: _199  and  _202
REMARK   81  A    between atoms: _202  and  _203
REMARK   82  A    between atoms: _206  and  _208
REMARK   83  A    between atoms: _208  and  _209
REMARK   84  A    between atoms: _208  and  _211
REMARK   85  A    between atoms: _211  and  _212
REMARK   86  A    between atoms: _212  and  _213
REMARK   87  A    between atoms: _213  and  _214
REMARK   88  A    between atoms: _223  and  _225
REMARK   89  A    between atoms: _225  and  _226
REMARK   90  A    between atoms: _225  and  _228
REMARK   91  A    between atoms: _228  and  _229
REMARK   92  A    between atoms: _232  and  _234
REMARK   93  A    between atoms: _234  and  _235
REMARK   94  A    between atoms: _234  and  _237
REMARK   95  A    between atoms: _240  and  _242
REMARK   96  A    between atoms: _242  and  _243
REMARK   97  A    between atoms: _242  and  _245
REMARK   98  A    between atoms: _245  and  _246
REMARK   99  A    between atoms: _248  and  _250
REMARK  100  A    between atoms: _250  and  _251
REMARK  101  A    between atoms: _253  and  _255
REMARK  102  A    between atoms: _255  and  _256
REMARK  103  A    between atoms: _255  and  _258
REMARK  104  A    between atoms: _258  and  _259
REMARK  105  A    between atoms: _264  and  _266
REMARK  106  A    between atoms: _266  and  _267
REMARK  107  A    between atoms: _266  and  _269
REMARK  108  A    between atoms: _272  and  _274
REMARK  109  A    between atoms: _274  and  _275
REMARK  110  A    between atoms: _274  and  _277
REMARK  111  A    between atoms: _277  and  _278
REMARK                            x       y       z     vdW  Elec       q    Type
REMARK                         _______ _______ _______ _____ _____    ______ ____
ROOT
ATOM      1  CB  HIS A   1      -5.397  12.029  18.220  0.00  0.00    +0.072 C 
ENDROOT
BRANCH   1   2
ATOM      2  CG  HIS A   1      -6.737  12.422  18.761  0.00  0.00    +0.082 A 
ATOM      3  ND1 HIS A   1      -7.309  11.803  19.847  0.00  0.00    -0.227 NA
ATOM      4  CE1 HIS A   1      -8.478  12.360  20.110  0.00  0.00    +0.199 A 
ATOM      5  NE2 HIS A   1      -8.682  13.326  19.233  0.00  0.00    -0.221 NA
ATOM      6  CD2 HIS A   1      -7.607  13.388  18.380  0.00  0.00    +0.115 A 
ENDBRANCH   1   2
BRANCH   1   7
ATOM      7  CA  HIS A   1      -5.386  10.706  17.434  0.00  0.00    +0.139 C 
BRANCH   7   8
ATOM      8  N   HIS A   1      -6.447  10.673  16.430  0.00  0.00    -0.239 NA
ATOM      9  H   HIS A   1      -7.316  11.220  16.593  0.00  0.00    +0.142 HD
ENDBRANCH   7   8
BRANCH   7  10
ATOM     10  C   HIS A   1      -5.420   9.491  18.369  0.00  0.00    +0.224 C 
ATOM     11  O   HIS A   1      -4.433   9.202  19.041  0.00  0.00    -0.287 OA
ENDBRANCH   7  10
ENDBRANCH   1   7
TORSDOF 4
REMARK  Name = ../refined-set-2016/4jwk/4jwk_pocket.pdb
REMARK  111 active torsions:
REMARK  status: ('A' for Active; 'I' for Inactive)
REMARK    1  A    between atoms: _1  and  _3
REMARK    2  A    between atoms: _3  and  _4
REMARK    3  A    between atoms: _3  and  _6
REMARK    4  A    between atoms: _6  and  _7
REMARK    5  A    between atoms: _10  and  _12
REMARK    6  A    between atoms: _12  and  _13
REMARK    7  A    between atoms: _15  and  _17
REMARK    8  A    between atoms: _17  and  _18
REMARK    9  A    between atoms: _17  and  _20
REMARK   10  A    between atoms: _20  and  _21
REMARK   11  A    between atoms: _27  and  _28
REMARK   12  A    between atoms: _33  and  _35
REMARK   13  A    between atoms: _35  and  _36
REMARK   14  A    between atoms: _35  and  _38
REMARK   15  A    between atoms: _38  and  _39
REMARK   16  A    between atoms: _39  and  _40
REMARK   17  A    between atoms: _43  and  _45
REMARK   18  A    between atoms: _45  and  _46
REMARK   19  A    between atoms: _45  and  _48
REMARK   20  A    between atoms: _48  and  _49
REMARK   21  A    between atoms: _54  and  _55
REMARK   22  A    between atoms: _57  and  _59
REMARK   23  A    between atoms: _59  and  _60
REMARK   24  A    between atoms: _59  and  _62
REMARK   25  A    between atoms: _62  and  _63
REMARK   26  A    between atoms: _68  and  _70
REMARK   27  A    between atoms: _70  and  _71
REMARK   28  A    between atoms: _70  and  _73
REMARK   29  A    between atoms: _73  and  _74
REMARK   30  A    between atoms: _77  and  _79
REMARK   31  A    between atoms: _79  and  _80
REMARK   32  A    between atoms: _79  and  _82
REMARK   33  A    between atoms: _82  and  _83
REMARK   34  A    between atoms: _88  and  _89
REMARK   35  A    between atoms: _91  and  _93
REMARK   36  A    between atoms: _93  and  _94
REMARK   37  A    between atoms: _93  and  _96
REMARK   38  A    between atoms: _96  and  _97
REMARK   39  A    between atoms: _97  and  _98
REMARK   40  A    between atoms: _100  and  _102
REMARK   41  A    between atoms: _102  and  _103
REMARK   42  A    between atoms: _102  and  _105
REMARK   43  A    between atoms: _105  and  _106
REMARK   44  A    between atoms: _111  and  _113
REMARK   45  A    between atoms: _113  and  _114
REMARK   46  A    between atoms: _113  and  _116
REMARK   47  A    between atoms: _116  and  _117
REMARK   48  A    between atoms: _117  and  _118
REMARK   49  A    between atoms: _118  and  _119
REMARK   50  A    between atoms: _128  and  _130
REMARK   51  A    between atoms: _130  and  _131
REMARK   52  A    between atoms: _130  and  _133
REMARK   53  A    between atoms: _133  and  _134
REMARK   54  A    between atoms: _136  and  _138
REMARK   55  A    between atoms: _138  and  _139
REMARK   56  A    between atoms: _138  and  _141
REMARK   57  A    between atoms: _141  and  _142
REMARK   58  A    between atoms: _145  and  _147
REMARK   59  A    between atoms: _147  and  _148
REMARK   60  A    between atoms: _147  and  _150
REMARK   61  A    between atoms: _150  and  _151
REMARK   62  A    between atoms: _154  and  _156
REMARK   63  A    between atoms: _156  and  _157
REMARK   64  A    between atoms: _156  and  _159
REMARK   65  A    between atoms: _159  and  _160
REMARK   66  A    between atoms: _165  and  _167
REMARK   67  A    between atoms: _167  and  _168
REMARK   68  A    between atoms: _170  and  _172
REMARK   69  A    between atoms: _172  and  _173
REMARK   70  A    between atoms: _172  and  _175
REMARK   71  A    between atoms: _175  and  _176
REMARK   72  A    between atoms: _181  and  _183
REMARK   73  A    between atoms: _183  and  _184
REMARK   74  A    between atoms: _183  and  _186
REMARK   75  A    between atoms: _186  and  _187
REMARK   76  A    between atoms: _192  and  _194
REMARK   77  A    between atoms: _194  and  _195
REMARK   78  A    between atoms: _197  and  _199
REMARK   79  A    between atoms: _199  and  _200
REMARK   80  A    between atoms: _199  and  _202
REMARK   81  A    between atoms: _202  and  _203
REMARK   82  A    between atoms: _206  and  _208
REMARK   83  A    between atoms: _208  and  _209
REMARK   84  A    between atoms: _208  and  _211
REMARK   85  A    between atoms: _211  and  _212
REMARK   86  A    between atoms: _212  and  _213
REMARK   87  A    between atoms: _213  and  _214
REMARK   88  A    between atoms: _223  and  _225
REMARK   89  A    between atoms: _225  and  _226
REMARK   90  A    between atoms: _225  and  _228
REMARK   91  A    between atoms: _228  and  _229
REMARK   92  A    between atoms: _232  and  _234
REMARK   93  A    between atoms: _234  and  _235
REMARK   94  A    between atoms: _234  and  _237
REMARK   95  A    between atoms: _240  and  _242
REMARK   96  A    between atoms: _242  and  _243
REMARK   97  A    between atoms: _242  and  _245
REMARK   98  A    between atoms: _245  and  _246
REMARK   99  A    between atoms: _248  and  _250
REMARK  100  A    between atoms: _250  and  _251
REMARK  101  A    between atoms: _253  and  _255
REMARK  102  A    between atoms: _255  and  _256
REMARK  103  A    between atoms: _255  and  _258
REMARK  104  A    between atoms: _258  and  _259
REMARK  105  A    between atoms: _264  and  _266
REMARK  106  A    between atoms: _266  and  _267
REMARK  107  A    between atoms: _266  and  _269
REMARK  108  A    between atoms: _272  and  _274
REMARK  109  A    between atoms: _274  and  _275
REMARK  110  A    between atoms: _274  and  _277
REMARK  111  A    between atoms: _277  and  _278
REMARK                            x       y       z     vdW  Elec       q    Type
REMARK                         _______ _______ _______ _____ _____    ______ ____
ROOT
ATOM      1  C   GLY A   4      -0.380  15.031  19.652  0.00  0.00    +0.243 C 
ATOM      2  N   LEU A   5      -0.848  13.900  19.136  0.00  0.00    -0.297 N 
ATOM      3  H   LEU A   5      -0.719  13.012  19.663  0.00  0.00    +0.150 HD
ATOM      4  O   GLY A   4      -0.459  16.111  19.066  0.00  0.00    -0.273 OA
ENDROOT
BRANCH   2   5
ATOM      5  CA  LEU A   5      -1.535  13.869  17.855  0.00  0.00    +0.149 C 
BRANCH   5   6
ATOM      6  C   LEU A   5      -2.765  14.772  17.871  0.00  0.00    +0.241 C 
ATOM      7  N   ARG A   6      -3.450  14.837  19.011  0.00  0.00    -0.297 N 
ATOM      8  H   ARG A   6      -3.121  14.293  19.834  0.00  0.00    +0.150 HD
ATOM      9  O   LEU A   5      -3.070  15.413  16.876  0.00  0.00    -0.273 OA
BRANCH   7  10
ATOM     10  CA  ARG A   6      -4.657  15.658  19.132  0.00  0.00    +0.149 C 
BRANCH  10  11
ATOM     11  C   ARG A   6      -4.364  17.136  18.869  0.00  0.00    +0.241 C 
ATOM     12  N   ASP A   7      -3.133  17.536  19.116  0.00  0.00    -0.298 N 
ATOM     13  H   ASP A   7      -2.432  16.849  19.461  0.00  0.00    +0.150 HD
ATOM     14  O   ARG A   6      -5.239  17.873  18.418  0.00  0.00    -0.273 OA
BRANCH  12  15
ATOM     15  CA  ASP A   7      -2.738  18.920  18.915  0.00  0.00    +0.148 C 
BRANCH  15  16
ATOM     16  C   ASP A   7      -2.255  19.226  17.504  0.00  0.00    +0.227 C 
ATOM     17  O   ASP A   7      -1.916  20.317  17.213  0.00  0.00    -0.286 OA
ENDBRANCH  15  16
BRANCH  15  18
ATOM     18  CB  ASP A   7      -1.677  19.322  19.917  0.00  0.00    +0.142 C 
BRANCH  18  19
ATOM     19  CG  ASP A   7      -1.549  20.837  20.053  0.00  0.00    +0.367 C 
ATOM     20  OD2 ASP A   7      -2.547  21.459  20.305  0.00  0.00    -0.246 OA
ATOM     21  OD1 ASP A   7      -0.486  21.400  19.898  0.00  0.00    -0.246 OA
ENDBRANCH  18  19
ENDBRANCH  15  18
ENDBRANCH  12  15
ENDBRANCH  10  11
BRANCH  10  22
ATOM     22  CB  ARG A   6      -5.304  15.478  20.510  0.00  0.00    +0.033 C 
BRANCH  22  23
ATOM     23  CG  ARG A   6      -6.499  16.394  20.744  0.00  0.00    +0.045 C 
BRANCH  23  24
ATOM     24  CD  ARG A   6      -7.553  15.800  21.653  0.00  0.00    +0.174 C 
BRANCH  24  25
ATOM     25  NE  ARG A   6      -7.150  15.778  23.050  0.00  0.00    -0.265 N 
ATOM     26  CZ  ARG A   6      -7.993  15.798  24.086  0.00  0.00    +0.342 C 
ATOM     27  NH2 ARG A   6      -7.513  15.767  25.325  0.00  0.00    -0.292 N 
ATOM     28 HH21 ARG A   6      -8.164  15.782  26.136  0.00  0.00    +0.255 HD
ATOM     29 HH22 ARG A   6      -6.486  15.727  25.484  0.00  0.00    +0.255 HD
ATOM     30  NH1 ARG A   6      -9.310  15.862  23.902  0.00  0.00    -0.292 N 
ATOM     31 HH11 ARG A   6      -9.950  15.877  24.722  0.00  0.00    +0.255 HD
ATOM     32 HH12 ARG A   6      -9.699  15.897  22.938  0.00  0.00    +0.255 HD
ATOM     33  HE  ARG A   6      -6.131  15.744  23.258  0.00  0.00    +0.259 HD
ENDBRANCH  24  25
ENDBRANCH  23  24
ENDBRANCH  22  23
ENDBRANCH  10  22
ENDBRANCH   7  10
ENDBRANCH   5   6
BRANCH   5  34
ATOM     34  CB  LEU A   5      -1.941  12.439  17.492  0.00  0.00    +0.029 C 
BRANCH  34  35
ATOM     35  CG  LEU A   5      -0.806  11.429  17.314  0.00  0.00    +0.002 C 
ATOM     36  CD2 LEU A   5      -1.388  10.055  16.996  0.00  0.00    +0.000 C 
ATOM     37  CD1 LEU A   5       0.167  11.857  16.225  0.00  0.00    +0.000 C 
ENDBRANCH  34  35
ENDBRANCH   5  34
ENDBRANCH   2   5
BRANCH   1  38
ATOM     38  CA  GLY A   4       0.256  14.930  21.029  0.00  0.00    +0.176 C 
BRANCH  38  41
ATOM     39  C   ASN A   3      -1.772  15.042  22.378  0.00  0.00    +0.241 C 
ATOM     40  O   ASN A   3      -1.927  16.235  22.138  0.00  0.00    -0.273 OA
ATOM     41  N   GLY A   4      -0.685  14.371  22.000  0.00  0.00    -0.295 N 
ATOM     42  H   GLY A   4      -0.501  13.430  22.404  0.00  0.00    +0.150 HD
BRANCH  39  43
ATOM     43  CA  ASN A   3      -2.868  14.257  23.111  0.00  0.00    +0.158 C 
BRANCH  43  45
ATOM     44  C   HIS A   2      -3.032  12.125  21.975  0.00  0.00    +0.241 C 
ATOM     45  N   ASN A   3      -2.699  12.797  23.072  0.00  0.00    -0.297 N 
ATOM     46  H   ASN A   3      -2.321  12.293  23.899  0.00  0.00    +0.150 HD
ATOM     47  O   HIS A   2      -3.372  12.692  20.938  0.00  0.00    -0.273 OA
BRANCH  44  48
ATOM     48  CA  HIS A   2      -2.989  10.599  22.041  0.00  0.00    +0.155 C 
BRANCH  48  51
ATOM     49  C   GLY A   1      -5.255  10.105  22.810  0.00  0.00    +0.240 C 
ATOM     50  O   GLY A   1      -5.042  10.669  23.880  0.00  0.00    -0.274 OA
ATOM     51  N   HIS A   2      -4.336  10.046  21.847  0.00  0.00    -0.297 N 
ATOM     52  H   HIS A   2      -4.577   9.599  20.939  0.00  0.00    +0.150 HD
BRANCH  49  53
ATOM     53  CA  GLY A   1      -6.609   9.440  22.549  0.00  0.00    +0.169 C 
BRANCH  53  54
ATOM     54  N   GLY A   1      -6.869   8.992  21.178  0.00  0.00    -0.236 NA
ATOM     55  H   GLY A   1      -7.377   9.633  20.536  0.00  0.00    +0.142 HD
ENDBRANCH  53  54
ENDBRANCH  49  53
ENDBRANCH  48  51
BRANCH  48  56
ATOM     56  CB  HIS A   2      -2.032  10.040  20.985  0.00  0.00    +0.076 C 
BRANCH  56  57
ATOM     57  CG  HIS A   2      -0.586  10.253  21.309  0.00  0.00    +0.082 A 
ATOM     58  CD2 HIS A   2       0.350   9.415  21.813  0.00  0.00    +0.115 A 
ATOM     59  NE2 HIS A   2       1.518  10.130  21.922  0.00  0.00    -0.221 NA
ATOM     60  CE1 HIS A   2       1.305  11.364  21.505  0.00  0.00    +0.199 A 
ATOM     61  ND1 HIS A   2       0.043  11.462  21.129  0.00  0.00    -0.227 NA
ENDBRANCH  56  57
ENDBRANCH  48  56
ENDBRANCH  44  48
ENDBRANCH  43  45
BRANCH  43  62
ATOM     62  CB  ASN A   3      -3.071  14.776  24.537  0.00  0.00    +0.114 C 
BRANCH  62  63
ATOM     63  CG  ASN A   3      -4.406  14.367  25.131  0.00  0.00    +0.222 C 
ATOM     64  ND2 ASN A   3      -4.406  14.027  26.418  0.00  0.00    -0.329 N 
ATOM     65 HD21 ASN A   3      -3.518  14.042  26.960  0.00  0.00    +0.145 HD
ATOM     66 HD22 ASN A   3      -5.294  13.747  26.882  0.00  0.00    +0.145 HD
ATOM     67  OD1 ASN A   3      -5.424  14.366  24.449  0.00  0.00    -0.275 OA
ENDBRANCH  62  63
ENDBRANCH  43  62
ENDBRANCH  39  43
ENDBRANCH  38  41
ENDBRANCH   1  38
TORSDOF 26
REMARK  Name = ../refined-set-2016/4jwk/4jwk_pocket.pdb
REMARK  111 active torsions:
REMARK  status: ('A' for Active; 'I' for Inactive)
REMARK    1  A    between atoms: _1  and  _3
REMARK    2  A    between atoms: _3  and  _4
REMARK    3  A    between atoms: _3  and  _6
REMARK    4  A    between atoms: _6  and  _7
REMARK    5  A    between atoms: _10  and  _12
REMARK    6  A    between atoms: _12  and  _13
REMARK    7  A    between atoms: _15  and  _17
REMARK    8  A    between atoms: _17  and  _18
REMARK    9  A    between atoms: _17  and  _20
REMARK   10  A    between atoms: _20  and  _21
REMARK   11  A    between atoms: _27  and  _28
REMARK   12  A    between atoms: _33  and  _35
REMARK   13  A    between atoms: _35  and  _36
REMARK   14  A    between atoms: _35  and  _38
REMARK   15  A    between atoms: _38  and  _39
REMARK   16  A    between atoms: _39  and  _40
REMARK   17  A    between atoms: _43  and  _45
REMARK   18  A    between atoms: _45  and  _46
REMARK   19  A    between atoms: _45  and  _48
REMARK   20  A    between atoms: _48  and  _49
REMARK   21  A    between atoms: _54  and  _55
REMARK   22  A    between atoms: _57  and  _59
REMARK   23  A    between atoms: _59  and  _60
REMARK   24  A    between atoms: _59  and  _62
REMARK   25  A    between atoms: _62  and  _63
REMARK   26  A    between atoms: _68  and  _70
REMARK   27  A    between atoms: _70  and  _71
REMARK   28  A    between atoms: _70  and  _73
REMARK   29  A    between atoms: _73  and  _74
REMARK   30  A    between atoms: _77  and  _79
REMARK   31  A    between atoms: _79  and  _80
REMARK   32  A    between atoms: _79  and  _82
REMARK   33  A    between atoms: _82  and  _83
REMARK   34  A    between atoms: _88  and  _89
REMARK   35  A    between atoms: _91  and  _93
REMARK   36  A    between atoms: _93  and  _94
REMARK   37  A    between atoms: _93  and  _96
REMARK   38  A    between atoms: _96  and  _97
REMARK   39  A    between atoms: _97  and  _98
REMARK   40  A    between atoms: _100  and  _102
REMARK   41  A    between atoms: _102  and  _103
REMARK   42  A    between atoms: _102  and  _105
REMARK   43  A    between atoms: _105  and  _106
REMARK   44  A    between atoms: _111  and  _113
REMARK   45  A    between atoms: _113  and  _114
REMARK   46  A    between atoms: _113  and  _116
REMARK   47  A    between atoms: _116  and  _117
REMARK   48  A    between atoms: _117  and  _118
REMARK   49  A    between atoms: _118  and  _119
REMARK   50  A    between atoms: _128  and  _130
REMARK   51  A    between atoms: _130  and  _131
REMARK   52  A    between atoms: _130  and  _133
REMARK   53  A    between atoms: _133  and  _134
REMARK   54  A    between atoms: _136  and  _138
REMARK   55  A    between atoms: _138  and  _139
REMARK   56  A    between atoms: _138  and  _141
REMARK   57  A    between atoms: _141  and  _142
REMARK   58  A    between atoms: _145  and  _147
REMARK   59  A    between atoms: _147  and  _148
REMARK   60  A    between atoms: _147  and  _150
REMARK   61  A    between atoms: _150  and  _151
REMARK   62  A    between atoms: _154  and  _156
REMARK   63  A    between atoms: _156  and  _157
REMARK   64  A    between atoms: _156  and  _159
REMARK   65  A    between atoms: _159  and  _160
REMARK   66  A    between atoms: _165  and  _167
REMARK   67  A    between atoms: _167  and  _168
REMARK   68  A    between atoms: _170  and  _172
REMARK   69  A    between atoms: _172  and  _173
REMARK   70  A    between atoms: _172  and  _175
REMARK   71  A    between atoms: _175  and  _176
REMARK   72  A    between atoms: _181  and  _183
REMARK   73  A    between atoms: _183  and  _184
REMARK   74  A    between atoms: _183  and  _186
REMARK   75  A    between atoms: _186  and  _187
REMARK   76  A    between atoms: _192  and  _194
REMARK   77  A    between atoms: _194  and  _195
REMARK   78  A    between atoms: _197  and  _199
REMARK   79  A    between atoms: _199  and  _200
REMARK   80  A    between atoms: _199  and  _202
REMARK   81  A    between atoms: _202  and  _203
REMARK   82  A    between atoms: _206  and  _208
REMARK   83  A    between atoms: _208  and  _209
REMARK   84  A    between atoms: _208  and  _211
REMARK   85  A    between atoms: _211  and  _212
REMARK   86  A    between atoms: _212  and  _213
REMARK   87  A    between atoms: _213  and  _214
REMARK   88  A    between atoms: _223  and  _225
REMARK   89  A    between atoms: _225  and  _226
REMARK   90  A    between atoms: _225  and  _228
REMARK   91  A    between atoms: _228  and  _229
REMARK   92  A    between atoms: _232  and  _234
REMARK   93  A    between atoms: _234  and  _235
REMARK   94  A    between atoms: _234  and  _237
REMARK   95  A    between atoms: _240  and  _242
REMARK   96  A    between atoms: _242  and  _243
REMARK   97  A    between atoms: _242  and  _245
REMARK   98  A    between atoms: _245  and  _246
REMARK   99  A    between atoms: _248  and  _250
REMARK  100  A    between atoms: _250  and  _251
REMARK  101  A    between atoms: _253  and  _255
REMARK  102  A    between atoms: _255  and  _256
REMARK  103  A    between atoms: _255  and  _258
REMARK  104  A    between atoms: _258  and  _259
REMARK  105  A    between atoms: _264  and  _266
REMARK  106  A    between atoms: _266  and  _267
REMARK  107  A    between atoms: _266  and  _269
REMARK  108  A    between atoms: _272  and  _274
REMARK  109  A    between atoms: _274  and  _275
REMARK  110  A    between atoms: _274  and  _277
REMARK  111  A    between atoms: _277  and  _278
REMARK                            x       y       z     vdW  Elec       q    Type
REMARK                         _______ _______ _______ _____ _____    ______ ____
ROOT
ATOM      1  CA  HIS A   4       1.735   4.837  32.723  0.00  0.00    +0.155 C 
ENDROOT
BRANCH   1   4
ATOM      2  C   GLY A   3       1.758   6.366  34.624  0.00  0.00    +0.243 C 
ATOM      3  O   GLY A   3       2.948   6.140  34.862  0.00  0.00    -0.273 OA
ATOM      4  N   HIS A   4       1.091   5.775  33.637  0.00  0.00    -0.297 N 
ATOM      5  H   HIS A   4       0.081   5.987  33.513  0.00  0.00    +0.150 HD
BRANCH   2   6
ATOM      6  CA  GLY A   3       0.972   7.352  35.472  0.00  0.00    +0.176 C 
BRANCH   6   8
ATOM      7  C   SER A   2       0.091   8.795  33.706  0.00  0.00    +0.243 C 
ATOM      8  N   GLY A   3      -0.123   7.991  34.745  0.00  0.00    -0.295 N 
ATOM      9  H   GLY A   3      -1.101   7.812  35.049  0.00  0.00    +0.150 HD
ATOM     10  O   SER A   2       1.219   9.091  33.301  0.00  0.00    -0.273 OA
BRANCH   7  11
ATOM     11  CA  SER A   2      -1.154   9.338  33.012  0.00  0.00    +0.178 C 
BRANCH  11  13
ATOM     12  C   VAL A   1      -1.829   7.218  32.062  0.00  0.00    +0.238 C 
ATOM     13  N   SER A   2      -2.124   8.269  32.802  0.00  0.00    -0.295 N 
ATOM     14  H   SER A   2      -3.063   8.337  33.243  0.00  0.00    +0.150 HD
ATOM     15  O   VAL A   1      -0.864   7.147  31.369  0.00  0.00    -0.274 OA
BRANCH  12  16
ATOM     16  CA  VAL A   1      -2.844   6.121  32.042  0.00  0.00    +0.145 C 
BRANCH  16  17
ATOM     17  CB  VAL A   1      -3.893   6.390  30.955  0.00  0.00    +0.025 C 
ATOM     18  CG2 VAL A   1      -4.607   5.092  30.662  0.00  0.00    +0.002 C 
ATOM     19  CG1 VAL A   1      -3.323   6.960  29.660  0.00  0.00    +0.002 C 
ENDBRANCH  16  17
BRANCH  16  20
ATOM     20  N   VAL A   1      -3.478   5.783  33.319  0.00  0.00    -0.238 NA
ATOM     21  H   VAL A   1      -4.500   5.952  33.417  0.00  0.00    +0.142 HD
ENDBRANCH  16  20
ENDBRANCH  12  16
ENDBRANCH  11  13
BRANCH  11  22
ATOM     22  CB  SER A   2      -1.766  10.465  33.847  0.00  0.00    +0.166 C 
BRANCH  22  23
ATOM     23  OG  SER A   2      -0.927  11.605  33.842  0.00  0.00    -0.380 OA
ATOM     24  H   SER A   2      -1.341  12.320  34.387  0.00  0.00    +0.211 HD
ENDBRANCH  22  23
ENDBRANCH  11  22
ENDBRANCH   7  11
ENDBRANCH   6   8
ENDBRANCH   2   6
ENDBRANCH   1   4
BRANCH   1  25
ATOM     25  C   HIS A   4       2.585   5.576  31.694  0.00  0.00    +0.241 C 
ATOM     26  O   HIS A   4       3.771   5.291  31.566  0.00  0.00    -0.273 OA
ATOM     27  N   VAL A   5       1.992   6.529  30.975  0.00  0.00    -0.297 N 
ATOM     28  H   VAL A   5       1.009   6.798  31.185  0.00  0.00    +0.150 HD
BRANCH  27  29
ATOM     29  CA  VAL A   5       2.718   7.204  29.886  0.00  0.00    +0.149 C 
BRANCH  29  30
ATOM     30  C   VAL A   5       3.836   8.097  30.427  0.00  0.00    +0.241 C 
ATOM     31  N   LEU A   6       3.624   8.692  31.598  0.00  0.00    -0.298 N 
ATOM     32  H   LEU A   6       2.702   8.583  32.067  0.00  0.00    +0.150 HD
ATOM     33  O   VAL A   5       4.890   8.222  29.806  0.00  0.00    -0.273 OA
BRANCH  31  34
ATOM     34  CA  LEU A   6       4.665   9.496  32.237  0.00  0.00    +0.137 C 
BRANCH  34  35
ATOM     35  C   LEU A   6       5.506   8.674  33.204  0.00  0.00    +0.227 C 
ATOM     36  O   LEU A   6       6.272   9.227  33.995  0.00  0.00    -0.286 OA
ENDBRANCH  34  35
BRANCH  34  37
ATOM     37  CB  LEU A   6       4.051  10.702  32.944  0.00  0.00    +0.028 C 
BRANCH  37  38
ATOM     38  CG  LEU A   6       3.182  11.572  32.037  0.00  0.00    +0.002 C 
ATOM     39  CD2 LEU A   6       2.522  12.680  32.845  0.00  0.00    +0.000 C 
ATOM     40  CD1 LEU A   6       3.999  12.141  30.878  0.00  0.00    +0.000 C 
ENDBRANCH  37  38
ENDBRANCH  34  37
ENDBRANCH  31  34
ENDBRANCH  29  30
BRANCH  29  41
ATOM     41  CB  VAL A   5       1.793   7.983  28.907  0.00  0.00    +0.027 C 
ATOM     42  CG2 VAL A   5       1.205   9.235  29.541  0.00  0.00    +0.002 C 
ATOM     43  CG1 VAL A   5       0.692   7.074  28.370  0.00  0.00    +0.002 C 
ENDBRANCH  29  41
ENDBRANCH  27  29
ENDBRANCH   1  25
BRANCH   1  44
ATOM     44  CB  HIS A   4       0.684   3.977  32.023  0.00  0.00    +0.076 C 
BRANCH  44  45
ATOM     45  CG  HIS A   4       1.255   2.883  31.173  0.00  0.00    +0.082 A 
ATOM     46  ND1 HIS A   4       1.858   1.764  31.704  0.00  0.00    -0.227 NA
ATOM     47  CE1 HIS A   4       2.249   0.970  30.724  0.00  0.00    +0.199 A 
ATOM     48  NE2 HIS A   4       1.919   1.532  29.575  0.00  0.00    -0.221 NA
ATOM     49  CD2 HIS A   4       1.289   2.726  29.828  0.00  0.00    +0.115 A 
ENDBRANCH  44  45
ENDBRANCH   1  44
TORSDOF 20
REMARK  Name = ../refined-set-2016/4jwk/4jwk_pocket.pdb
REMARK  111 active torsions:
REMARK  status: ('A' for Active; 'I' for Inactive)
REMARK    1  A    between atoms: _1  and  _3
REMARK    2  A    between atoms: _3  and  _4
REMARK    3  A    between atoms: _3  and  _6
REMARK    4  A    between atoms: _6  and  _7
REMARK    5  A    between atoms: _10  and  _12
REMARK    6  A    between atoms: _12  and  _13
REMARK    7  A    between atoms: _15  and  _17
REMARK    8  A    between atoms: _17  and  _18
REMARK    9  A    between atoms: _17  and  _20
REMARK   10  A    between atoms: _20  and  _21
REMARK   11  A    between atoms: _27  and  _28
REMARK   12  A    between atoms: _33  and  _35
REMARK   13  A    between atoms: _35  and  _36
REMARK   14  A    between atoms: _35  and  _38
REMARK   15  A    between atoms: _38  and  _39
REMARK   16  A    between atoms: _39  and  _40
REMARK   17  A    between atoms: _43  and  _45
REMARK   18  A    between atoms: _45  and  _46
REMARK   19  A    between atoms: _45  and  _48
REMARK   20  A    between atoms: _48  and  _49
REMARK   21  A    between atoms: _54  and  _55
REMARK   22  A    between atoms: _57  and  _59
REMARK   23  A    between atoms: _59  and  _60
REMARK   24  A    between atoms: _59  and  _62
REMARK   25  A    between atoms: _62  and  _63
REMARK   26  A    between atoms: _68  and  _70
REMARK   27  A    between atoms: _70  and  _71
REMARK   28  A    between atoms: _70  and  _73
REMARK   29  A    between atoms: _73  and  _74
REMARK   30  A    between atoms: _77  and  _79
REMARK   31  A    between atoms: _79  and  _80
REMARK   32  A    between atoms: _79  and  _82
REMARK   33  A    between atoms: _82  and  _83
REMARK   34  A    between atoms: _88  and  _89
REMARK   35  A    between atoms: _91  and  _93
REMARK   36  A    between atoms: _93  and  _94
REMARK   37  A    between atoms: _93  and  _96
REMARK   38  A    between atoms: _96  and  _97
REMARK   39  A    between atoms: _97  and  _98
REMARK   40  A    between atoms: _100  and  _102
REMARK   41  A    between atoms: _102  and  _103
REMARK   42  A    between atoms: _102  and  _105
REMARK   43  A    between atoms: _105  and  _106
REMARK   44  A    between atoms: _111  and  _113
REMARK   45  A    between atoms: _113  and  _114
REMARK   46  A    between atoms: _113  and  _116
REMARK   47  A    between atoms: _116  and  _117
REMARK   48  A    between atoms: _117  and  _118
REMARK   49  A    between atoms: _118  and  _119
REMARK   50  A    between atoms: _128  and  _130
REMARK   51  A    between atoms: _130  and  _131
REMARK   52  A    between atoms: _130  and  _133
REMARK   53  A    between atoms: _133  and  _134
REMARK   54  A    between atoms: _136  and  _138
REMARK   55  A    between atoms: _138  and  _139
REMARK   56  A    between atoms: _138  and  _141
REMARK   57  A    between atoms: _141  and  _142
REMARK   58  A    between atoms: _145  and  _147
REMARK   59  A    between atoms: _147  and  _148
REMARK   60  A    between atoms: _147  and  _150
REMARK   61  A    between atoms: _150  and  _151
REMARK   62  A    between atoms: _154  and  _156
REMARK   63  A    between atoms: _156  and  _157
REMARK   64  A    between atoms: _156  and  _159
REMARK   65  A    between atoms: _159  and  _160
REMARK   66  A    between atoms: _165  and  _167
REMARK   67  A    between atoms: _167  and  _168
REMARK   68  A    between atoms: _170  and  _172
REMARK   69  A    between atoms: _172  and  _173
REMARK   70  A    between atoms: _172  and  _175
REMARK   71  A    between atoms: _175  and  _176
REMARK   72  A    between atoms: _181  and  _183
REMARK   73  A    between atoms: _183  and  _184
REMARK   74  A    between atoms: _183  and  _186
REMARK   75  A    between atoms: _186  and  _187
REMARK   76  A    between atoms: _192  and  _194
REMARK   77  A    between atoms: _194  and  _195
REMARK   78  A    between atoms: _197  and  _199
REMARK   79  A    between atoms: _199  and  _200
REMARK   80  A    between atoms: _199  and  _202
REMARK   81  A    between atoms: _202  and  _203
REMARK   82  A    between atoms: _206  and  _208
REMARK   83  A    between atoms: _208  and  _209
REMARK   84  A    between atoms: _208  and  _211
REMARK   85  A    between atoms: _211  and  _212
REMARK   86  A    between atoms: _212  and  _213
REMARK   87  A    between atoms: _213  and  _214
REMARK   88  A    between atoms: _223  and  _225
REMARK   89  A    between atoms: _225  and  _226
REMARK   90  A    between atoms: _225  and  _228
REMARK   91  A    between atoms: _228  and  _229
REMARK   92  A    between atoms: _232  and  _234
REMARK   93  A    between atoms: _234  and  _235
REMARK   94  A    between atoms: _234  and  _237
REMARK   95  A    between atoms: _240  and  _242
REMARK   96  A    between atoms: _242  and  _243
REMARK   97  A    between atoms: _242  and  _245
REMARK   98  A    between atoms: _245  and  _246
REMARK   99  A    between atoms: _248  and  _250
REMARK  100  A    between atoms: _250  and  _251
REMARK  101  A    between atoms: _253  and  _255
REMARK  102  A    between atoms: _255  and  _256
REMARK  103  A    between atoms: _255  and  _258
REMARK  104  A    between atoms: _258  and  _259
REMARK  105  A    between atoms: _264  and  _266
REMARK  106  A    between atoms: _266  and  _267
REMARK  107  A    between atoms: _266  and  _269
REMARK  108  A    between atoms: _272  and  _274
REMARK  109  A    between atoms: _274  and  _275
REMARK  110  A    between atoms: _274  and  _277
REMARK  111  A    between atoms: _277  and  _278
REMARK                            x       y       z     vdW  Elec       q    Type
REMARK                         _______ _______ _______ _____ _____    ______ ____
ROOT
ATOM      1  O   HOH     1       7.654  18.444  23.810  0.00  0.00    +0.000 OA
ENDROOT
TORSDOF 0
REMARK  Name = ../refined-set-2016/4jwk/4jwk_pocket.pdb
REMARK  111 active torsions:
REMARK  status: ('A' for Active; 'I' for Inactive)
REMARK    1  A    between atoms: _1  and  _3
REMARK    2  A    between atoms: _3  and  _4
REMARK    3  A    between atoms: _3  and  _6
REMARK    4  A    between atoms: _6  and  _7
REMARK    5  A    between atoms: _10  and  _12
REMARK    6  A    between atoms: _12  and  _13
REMARK    7  A    between atoms: _15  and  _17
REMARK    8  A    between atoms: _17  and  _18
REMARK    9  A    between atoms: _17  and  _20
REMARK   10  A    between atoms: _20  and  _21
REMARK   11  A    between atoms: _27  and  _28
REMARK   12  A    between atoms: _33  and  _35
REMARK   13  A    between atoms: _35  and  _36
REMARK   14  A    between atoms: _35  and  _38
REMARK   15  A    between atoms: _38  and  _39
REMARK   16  A    between atoms: _39  and  _40
REMARK   17  A    between atoms: _43  and  _45
REMARK   18  A    between atoms: _45  and  _46
REMARK   19  A    between atoms: _45  and  _48
REMARK   20  A    between atoms: _48  and  _49
REMARK   21  A    between atoms: _54  and  _55
REMARK   22  A    between atoms: _57  and  _59
REMARK   23  A    between atoms: _59  and  _60
REMARK   24  A    between atoms: _59  and  _62
REMARK   25  A    between atoms: _62  and  _63
REMARK   26  A    between atoms: _68  and  _70
REMARK   27  A    between atoms: _70  and  _71
REMARK   28  A    between atoms: _70  and  _73
REMARK   29  A    between atoms: _73  and  _74
REMARK   30  A    between atoms: _77  and  _79
REMARK   31  A    between atoms: _79  and  _80
REMARK   32  A    between atoms: _79  and  _82
REMARK   33  A    between atoms: _82  and  _83
REMARK   34  A    between atoms: _88  and  _89
REMARK   35  A    between atoms: _91  and  _93
REMARK   36  A    between atoms: _93  and  _94
REMARK   37  A    between atoms: _93  and  _96
REMARK   38  A    between atoms: _96  and  _97
REMARK   39  A    between atoms: _97  and  _98
REMARK   40  A    between atoms: _100  and  _102
REMARK   41  A    between atoms: _102  and  _103
REMARK   42  A    between atoms: _102  and  _105
REMARK   43  A    between atoms: _105  and  _106
REMARK   44  A    between atoms: _111  and  _113
REMARK   45  A    between atoms: _113  and  _114
REMARK   46  A    between atoms: _113  and  _116
REMARK   47  A    between atoms: _116  and  _117
REMARK   48  A    between atoms: _117  and  _118
REMARK   49  A    between atoms: _118  and  _119
REMARK   50  A    between atoms: _128  and  _130
REMARK   51  A    between atoms: _130  and  _131
REMARK   52  A    between atoms: _130  and  _133
REMARK   53  A    between atoms: _133  and  _134
REMARK   54  A    between atoms: _136  and  _138
REMARK   55  A    between atoms: _138  and  _139
REMARK   56  A    between atoms: _138  and  _141
REMARK   57  A    between atoms: _141  and  _142
REMARK   58  A    between atoms: _145  and  _147
REMARK   59  A    between atoms: _147  and  _148
REMARK   60  A    between atoms: _147  and  _150
REMARK   61  A    between atoms: _150  and  _151
REMARK   62  A    between atoms: _154  and  _156
REMARK   63  A    between atoms: _156  and  _157
REMARK   64  A    between atoms: _156  and  _159
REMARK   65  A    between atoms: _159  and  _160
REMARK   66  A    between atoms: _165  and  _167
REMARK   67  A    between atoms: _167  and  _168
REMARK   68  A    between atoms: _170  and  _172
REMARK   69  A    between atoms: _172  and  _173
REMARK   70  A    between atoms: _172  and  _175
REMARK   71  A    between atoms: _175  and  _176
REMARK   72  A    between atoms: _181  and  _183
REMARK   73  A    between atoms: _183  and  _184
REMARK   74  A    between atoms: _183  and  _186
REMARK   75  A    between atoms: _186  and  _187
REMARK   76  A    between atoms: _192  and  _194
REMARK   77  A    between atoms: _194  and  _195
REMARK   78  A    between atoms: _197  and  _199
REMARK   79  A    between atoms: _199  and  _200
REMARK   80  A    between atoms: _199  and  _202
REMARK   81  A    between atoms: _202  and  _203
REMARK   82  A    between atoms: _206  and  _208
REMARK   83  A    between atoms: _208  and  _209
REMARK   84  A    between atoms: _208  and  _211
REMARK   85  A    between atoms: _211  and  _212
REMARK   86  A    between atoms: _212  and  _213
REMARK   87  A    between atoms: _213  and  _214
REMARK   88  A    between atoms: _223  and  _225
REMARK   89  A    between atoms: _225  and  _226
REMARK   90  A    between atoms: _225  and  _228
REMARK   91  A    between atoms: _228  and  _229
REMARK   92  A    between atoms: _232  and  _234
REMARK   93  A    between atoms: _234  and  _235
REMARK   94  A    between atoms: _234  and  _237
REMARK   95  A    between atoms: _240  and  _242
REMARK   96  A    between atoms: _242  and  _243
REMARK   97  A    between atoms: _242  and  _245
REMARK   98  A    between atoms: _245  and  _246
REMARK   99  A    between atoms: _248  and  _250
REMARK  100  A    between atoms: _250  and  _251
REMARK  101  A    between atoms: _253  and  _255
REMARK  102  A    between atoms: _255  and  _256
REMARK  103  A    between atoms: _255  and  _258
REMARK  104  A    between atoms: _258  and  _259
REMARK  105  A    between atoms: _264  and  _266
REMARK  106  A    between atoms: _266  and  _267
REMARK  107  A    between atoms: _266  and  _269
REMARK  108  A    between atoms: _272  and  _274
REMARK  109  A    between atoms: _274  and  _275
REMARK  110  A    between atoms: _274  and  _277
REMARK  111  A    between atoms: _277  and  _278
REMARK                            x       y       z     vdW  Elec       q    Type
REMARK                         _______ _______ _______ _____ _____    ______ ____
ROOT
ATOM      1  O   HOH     1       7.072  12.104  28.535  0.00  0.00    +0.000 OA
ENDROOT
TORSDOF 0
REMARK  Name = ../refined-set-2016/4jwk/4jwk_pocket.pdb
REMARK  111 active torsions:
REMARK  status: ('A' for Active; 'I' for Inactive)
REMARK    1  A    between atoms: _1  and  _3
REMARK    2  A    between atoms: _3  and  _4
REMARK    3  A    between atoms: _3  and  _6
REMARK    4  A    between atoms: _6  and  _7
REMARK    5  A    between atoms: _10  and  _12
REMARK    6  A    between atoms: _12  and  _13
REMARK    7  A    between atoms: _15  and  _17
REMARK    8  A    between atoms: _17  and  _18
REMARK    9  A    between atoms: _17  and  _20
REMARK   10  A    between atoms: _20  and  _21
REMARK   11  A    between atoms: _27  and  _28
REMARK   12  A    between atoms: _33  and  _35
REMARK   13  A    between atoms: _35  and  _36
REMARK   14  A    between atoms: _35  and  _38
REMARK   15  A    between atoms: _38  and  _39
REMARK   16  A    between atoms: _39  and  _40
REMARK   17  A    between atoms: _43  and  _45
REMARK   18  A    between atoms: _45  and  _46
REMARK   19  A    between atoms: _45  and  _48
REMARK   20  A    between atoms: _48  and  _49
REMARK   21  A    between atoms: _54  and  _55
REMARK   22  A    between atoms: _57  and  _59
REMARK   23  A    between atoms: _59  and  _60
REMARK   24  A    between atoms: _59  and  _62
REMARK   25  A    between atoms: _62  and  _63
REMARK   26  A    between atoms: _68  and  _70
REMARK   27  A    between atoms: _70  and  _71
REMARK   28  A    between atoms: _70  and  _73
REMARK   29  A    between atoms: _73  and  _74
REMARK   30  A    between atoms: _77  and  _79
REMARK   31  A    between atoms: _79  and  _80
REMARK   32  A    between atoms: _79  and  _82
REMARK   33  A    between atoms: _82  and  _83
REMARK   34  A    between atoms: _88  and  _89
REMARK   35  A    between atoms: _91  and  _93
REMARK   36  A    between atoms: _93  and  _94
REMARK   37  A    between atoms: _93  and  _96
REMARK   38  A    between atoms: _96  and  _97
REMARK   39  A    between atoms: _97  and  _98
REMARK   40  A    between atoms: _100  and  _102
REMARK   41  A    between atoms: _102  and  _103
REMARK   42  A    between atoms: _102  and  _105
REMARK   43  A    between atoms: _105  and  _106
REMARK   44  A    between atoms: _111  and  _113
REMARK   45  A    between atoms: _113  and  _114
REMARK   46  A    between atoms: _113  and  _116
REMARK   47  A    between atoms: _116  and  _117
REMARK   48  A    between atoms: _117  and  _118
REMARK   49  A    between atoms: _118  and  _119
REMARK   50  A    between atoms: _128  and  _130
REMARK   51  A    between atoms: _130  and  _131
REMARK   52  A    between atoms: _130  and  _133
REMARK   53  A    between atoms: _133  and  _134
REMARK   54  A    between atoms: _136  and  _138
REMARK   55  A    between atoms: _138  and  _139
REMARK   56  A    between atoms: _138  and  _141
REMARK   57  A    between atoms: _141  and  _142
REMARK   58  A    between atoms: _145  and  _147
REMARK   59  A    between atoms: _147  and  _148
REMARK   60  A    between atoms: _147  and  _150
REMARK   61  A    between atoms: _150  and  _151
REMARK   62  A    between atoms: _154  and  _156
REMARK   63  A    between atoms: _156  and  _157
REMARK   64  A    between atoms: _156  and  _159
REMARK   65  A    between atoms: _159  and  _160
REMARK   66  A    between atoms: _165  and  _167
REMARK   67  A    between atoms: _167  and  _168
REMARK   68  A    between atoms: _170  and  _172
REMARK   69  A    between atoms: _172  and  _173
REMARK   70  A    between atoms: _172  and  _175
REMARK   71  A    between atoms: _175  and  _176
REMARK   72  A    between atoms: _181  and  _183
REMARK   73  A    between atoms: _183  and  _184
REMARK   74  A    between atoms: _183  and  _186
REMARK   75  A    between atoms: _186  and  _187
REMARK   76  A    between atoms: _192  and  _194
REMARK   77  A    between atoms: _194  and  _195
REMARK   78  A    between atoms: _197  and  _199
REMARK   79  A    between atoms: _199  and  _200
REMARK   80  A    between atoms: _199  and  _202
REMARK   81  A    between atoms: _202  and  _203
REMARK   82  A    between atoms: _206  and  _208
REMARK   83  A    between atoms: _208  and  _209
REMARK   84  A    between atoms: _208  and  _211
REMARK   85  A    between atoms: _211  and  _212
REMARK   86  A    between atoms: _212  and  _213
REMARK   87  A    between atoms: _213  and  _214
REMARK   88  A    between atoms: _223  and  _225
REMARK   89  A    between atoms: _225  and  _226
REMARK   90  A    between atoms: _225  and  _228
REMARK   91  A    between atoms: _228  and  _229
REMARK   92  A    between atoms: _232  and  _234
REMARK   93  A    between atoms: _234  and  _235
REMARK   94  A    between atoms: _234  and  _237
REMARK   95  A    between atoms: _240  and  _242
REMARK   96  A    between atoms: _242  and  _243
REMARK   97  A    between atoms: _242  and  _245
REMARK   98  A    between atoms: _245  and  _246
REMARK   99  A    between atoms: _248  and  _250
REMARK  100  A    between atoms: _250  and  _251
REMARK  101  A    between atoms: _253  and  _255
REMARK  102  A    between atoms: _255  and  _256
REMARK  103  A    between atoms: _255  and  _258
REMARK  104  A    between atoms: _258  and  _259
REMARK  105  A    between atoms: _264  and  _266
REMARK  106  A    between atoms: _266  and  _267
REMARK  107  A    between atoms: _266  and  _269
REMARK  108  A    between atoms: _272  and  _274
REMARK  109  A    between atoms: _274  and  _275
REMARK  110  A    between atoms: _274  and  _277
REMARK  111  A    between atoms: _277  and  _278
REMARK                            x       y       z     vdW  Elec       q    Type
REMARK                         _______ _______ _______ _____ _____    ______ ____
ROOT
ATOM      1  O   HOH     1      -1.723   5.999  22.442  0.00  0.00    +0.000 OA
ENDROOT
TORSDOF 0
REMARK  Name = ../refined-set-2016/4jwk/4jwk_pocket.pdb
REMARK  111 active torsions:
REMARK  status: ('A' for Active; 'I' for Inactive)
REMARK    1  A    between atoms: _1  and  _3
REMARK    2  A    between atoms: _3  and  _4
REMARK    3  A    between atoms: _3  and  _6
REMARK    4  A    between atoms: _6  and  _7
REMARK    5  A    between atoms: _10  and  _12
REMARK    6  A    between atoms: _12  and  _13
REMARK    7  A    between atoms: _15  and  _17
REMARK    8  A    between atoms: _17  and  _18
REMARK    9  A    between atoms: _17  and  _20
REMARK   10  A    between atoms: _20  and  _21
REMARK   11  A    between atoms: _27  and  _28
REMARK   12  A    between atoms: _33  and  _35
REMARK   13  A    between atoms: _35  and  _36
REMARK   14  A    between atoms: _35  and  _38
REMARK   15  A    between atoms: _38  and  _39
REMARK   16  A    between atoms: _39  and  _40
REMARK   17  A    between atoms: _43  and  _45
REMARK   18  A    between atoms: _45  and  _46
REMARK   19  A    between atoms: _45  and  _48
REMARK   20  A    between atoms: _48  and  _49
REMARK   21  A    between atoms: _54  and  _55
REMARK   22  A    between atoms: _57  and  _59
REMARK   23  A    between atoms: _59  and  _60
REMARK   24  A    between atoms: _59  and  _62
REMARK   25  A    between atoms: _62  and  _63
REMARK   26  A    between atoms: _68  and  _70
REMARK   27  A    between atoms: _70  and  _71
REMARK   28  A    between atoms: _70  and  _73
REMARK   29  A    between atoms: _73  and  _74
REMARK   30  A    between atoms: _77  and  _79
REMARK   31  A    between atoms: _79  and  _80
REMARK   32  A    between atoms: _79  and  _82
REMARK   33  A    between atoms: _82  and  _83
REMARK   34  A    between atoms: _88  and  _89
REMARK   35  A    between atoms: _91  and  _93
REMARK   36  A    between atoms: _93  and  _94
REMARK   37  A    between atoms: _93  and  _96
REMARK   38  A    between atoms: _96  and  _97
REMARK   39  A    between atoms: _97  and  _98
REMARK   40  A    between atoms: _100  and  _102
REMARK   41  A    between atoms: _102  and  _103
REMARK   42  A    between atoms: _102  and  _105
REMARK   43  A    between atoms: _105  and  _106
REMARK   44  A    between atoms: _111  and  _113
REMARK   45  A    between atoms: _113  and  _114
REMARK   46  A    between atoms: _113  and  _116
REMARK   47  A    between atoms: _116  and  _117
REMARK   48  A    between atoms: _117  and  _118
REMARK   49  A    between atoms: _118  and  _119
REMARK   50  A    between atoms: _128  and  _130
REMARK   51  A    between atoms: _130  and  _131
REMARK   52  A    between atoms: _130  and  _133
REMARK   53  A    between atoms: _133  and  _134
REMARK   54  A    between atoms: _136  and  _138
REMARK   55  A    between atoms: _138  and  _139
REMARK   56  A    between atoms: _138  and  _141
REMARK   57  A    between atoms: _141  and  _142
REMARK   58  A    between atoms: _145  and  _147
REMARK   59  A    between atoms: _147  and  _148
REMARK   60  A    between atoms: _147  and  _150
REMARK   61  A    between atoms: _150  and  _151
REMARK   62  A    between atoms: _154  and  _156
REMARK   63  A    between atoms: _156  and  _157
REMARK   64  A    between atoms: _156  and  _159
REMARK   65  A    between atoms: _159  and  _160
REMARK   66  A    between atoms: _165  and  _167
REMARK   67  A    between atoms: _167  and  _168
REMARK   68  A    between atoms: _170  and  _172
REMARK   69  A    between atoms: _172  and  _173
REMARK   70  A    between atoms: _172  and  _175
REMARK   71  A    between atoms: _175  and  _176
REMARK   72  A    between atoms: _181  and  _183
REMARK   73  A    between atoms: _183  and  _184
REMARK   74  A    between atoms: _183  and  _186
REMARK   75  A    between atoms: _186  and  _187
REMARK   76  A    between atoms: _192  and  _194
REMARK   77  A    between atoms: _194  and  _195
REMARK   78  A    between atoms: _197  and  _199
REMARK   79  A    between atoms: _199  and  _200
REMARK   80  A    between atoms: _199  and  _202
REMARK   81  A    between atoms: _202  and  _203
REMARK   82  A    between atoms: _206  and  _208
REMARK   83  A    between atoms: _208  and  _209
REMARK   84  A    between atoms: _208  and  _211
REMARK   85  A    between atoms: _211  and  _212
REMARK   86  A    between atoms: _212  and  _213
REMARK   87  A    between atoms: _213  and  _214
REMARK   88  A    between atoms: _223  and  _225
REMARK   89  A    between atoms: _225  and  _226
REMARK   90  A    between atoms: _225  and  _228
REMARK   91  A    between atoms: _228  and  _229
REMARK   92  A    between atoms: _232  and  _234
REMARK   93  A    between atoms: _234  and  _235
REMARK   94  A    between atoms: _234  and  _237
REMARK   95  A    between atoms: _240  and  _242
REMARK   96  A    between atoms: _242  and  _243
REMARK   97  A    between atoms: _242  and  _245
REMARK   98  A    between atoms: _245  and  _246
REMARK   99  A    between atoms: _248  and  _250
REMARK  100  A    between atoms: _250  and  _251
REMARK  101  A    between atoms: _253  and  _255
REMARK  102  A    between atoms: _255  and  _256
REMARK  103  A    between atoms: _255  and  _258
REMARK  104  A    between atoms: _258  and  _259
REMARK  105  A    between atoms: _264  and  _266
REMARK  106  A    between atoms: _266  and  _267
REMARK  107  A    between atoms: _266  and  _269
REMARK  108  A    between atoms: _272  and  _274
REMARK  109  A    between atoms: _274  and  _275
REMARK  110  A    between atoms: _274  and  _277
REMARK  111  A    between atoms: _277  and  _278
REMARK                            x       y       z     vdW  Elec       q    Type
REMARK                         _______ _______ _______ _____ _____    ______ ____
ROOT
ATOM      1  O   HOH     1       1.410  21.815  28.722  0.00  0.00    +0.000 OA
ENDROOT
TORSDOF 0
REMARK  Name = ../refined-set-2016/4jwk/4jwk_pocket.pdb
REMARK  111 active torsions:
REMARK  status: ('A' for Active; 'I' for Inactive)
REMARK    1  A    between atoms: _1  and  _3
REMARK    2  A    between atoms: _3  and  _4
REMARK    3  A    between atoms: _3  and  _6
REMARK    4  A    between atoms: _6  and  _7
REMARK    5  A    between atoms: _10  and  _12
REMARK    6  A    between atoms: _12  and  _13
REMARK    7  A    between atoms: _15  and  _17
REMARK    8  A    between atoms: _17  and  _18
REMARK    9  A    between atoms: _17  and  _20
REMARK   10  A    between atoms: _20  and  _21
REMARK   11  A    between atoms: _27  and  _28
REMARK   12  A    between atoms: _33  and  _35
REMARK   13  A    between atoms: _35  and  _36
REMARK   14  A    between atoms: _35  and  _38
REMARK   15  A    between atoms: _38  and  _39
REMARK   16  A    between atoms: _39  and  _40
REMARK   17  A    between atoms: _43  and  _45
REMARK   18  A    between atoms: _45  and  _46
REMARK   19  A    between atoms: _45  and  _48
REMARK   20  A    between atoms: _48  and  _49
REMARK   21  A    between atoms: _54  and  _55
REMARK   22  A    between atoms: _57  and  _59
REMARK   23  A    between atoms: _59  and  _60
REMARK   24  A    between atoms: _59  and  _62
REMARK   25  A    between atoms: _62  and  _63
REMARK   26  A    between atoms: _68  and  _70
REMARK   27  A    between atoms: _70  and  _71
REMARK   28  A    between atoms: _70  and  _73
REMARK   29  A    between atoms: _73  and  _74
REMARK   30  A    between atoms: _77  and  _79
REMARK   31  A    between atoms: _79  and  _80
REMARK   32  A    between atoms: _79  and  _82
REMARK   33  A    between atoms: _82  and  _83
REMARK   34  A    between atoms: _88  and  _89
REMARK   35  A    between atoms: _91  and  _93
REMARK   36  A    between atoms: _93  and  _94
REMARK   37  A    between atoms: _93  and  _96
REMARK   38  A    between atoms: _96  and  _97
REMARK   39  A    between atoms: _97  and  _98
REMARK   40  A    between atoms: _100  and  _102
REMARK   41  A    between atoms: _102  and  _103
REMARK   42  A    between atoms: _102  and  _105
REMARK   43  A    between atoms: _105  and  _106
REMARK   44  A    between atoms: _111  and  _113
REMARK   45  A    between atoms: _113  and  _114
REMARK   46  A    between atoms: _113  and  _116
REMARK   47  A    between atoms: _116  and  _117
REMARK   48  A    between atoms: _117  and  _118
REMARK   49  A    between atoms: _118  and  _119
REMARK   50  A    between atoms: _128  and  _130
REMARK   51  A    between atoms: _130  and  _131
REMARK   52  A    between atoms: _130  and  _133
REMARK   53  A    between atoms: _133  and  _134
REMARK   54  A    between atoms: _136  and  _138
REMARK   55  A    between atoms: _138  and  _139
REMARK   56  A    between atoms: _138  and  _141
REMARK   57  A    between atoms: _141  and  _142
REMARK   58  A    between atoms: _145  and  _147
REMARK   59  A    between atoms: _147  and  _148
REMARK   60  A    between atoms: _147  and  _150
REMARK   61  A    between atoms: _150  and  _151
REMARK   62  A    between atoms: _154  and  _156
REMARK   63  A    between atoms: _156  and  _157
REMARK   64  A    between atoms: _156  and  _159
REMARK   65  A    between atoms: _159  and  _160
REMARK   66  A    between atoms: _165  and  _167
REMARK   67  A    between atoms: _167  and  _168
REMARK   68  A    between atoms: _170  and  _172
REMARK   69  A    between atoms: _172  and  _173
REMARK   70  A    between atoms: _172  and  _175
REMARK   71  A    between atoms: _175  and  _176
REMARK   72  A    between atoms: _181  and  _183
REMARK   73  A    between atoms: _183  and  _184
REMARK   74  A    between atoms: _183  and  _186
REMARK   75  A    between atoms: _186  and  _187
REMARK   76  A    between atoms: _192  and  _194
REMARK   77  A    between atoms: _194  and  _195
REMARK   78  A    between atoms: _197  and  _199
REMARK   79  A    between atoms: _199  and  _200
REMARK   80  A    between atoms: _199  and  _202
REMARK   81  A    between atoms: _202  and  _203
REMARK   82  A    between atoms: _206  and  _208
REMARK   83  A    between atoms: _208  and  _209
REMARK   84  A    between atoms: _208  and  _211
REMARK   85  A    between atoms: _211  and  _212
REMARK   86  A    between atoms: _212  and  _213
REMARK   87  A    between atoms: _213  and  _214
REMARK   88  A    between atoms: _223  and  _225
REMARK   89  A    between atoms: _225  and  _226
REMARK   90  A    between atoms: _225  and  _228
REMARK   91  A    between atoms: _228  and  _229
REMARK   92  A    between atoms: _232  and  _234
REMARK   93  A    between atoms: _234  and  _235
REMARK   94  A    between atoms: _234  and  _237
REMARK   95  A    between atoms: _240  and  _242
REMARK   96  A    between atoms: _242  and  _243
REMARK   97  A    between atoms: _242  and  _245
REMARK   98  A    between atoms: _245  and  _246
REMARK   99  A    between atoms: _248  and  _250
REMARK  100  A    between atoms: _250  and  _251
REMARK  101  A    between atoms: _253  and  _255
REMARK  102  A    between atoms: _255  and  _256
REMARK  103  A    between atoms: _255  and  _258
REMARK  104  A    between atoms: _258  and  _259
REMARK  105  A    between atoms: _264  and  _266
REMARK  106  A    between atoms: _266  and  _267
REMARK  107  A    between atoms: _266  and  _269
REMARK  108  A    between atoms: _272  and  _274
REMARK  109  A    between atoms: _274  and  _275
REMARK  110  A    between atoms: _274  and  _277
REMARK  111  A    between atoms: _277  and  _278
REMARK                            x       y       z     vdW  Elec       q    Type
REMARK                         _______ _______ _______ _____ _____    ______ ____
ROOT
ATOM      1  O   HOH     1      -4.584   8.178  26.052  0.00  0.00    +0.000 OA
ENDROOT
TORSDOF 0
REMARK  Name = ../refined-set-2016/4jwk/4jwk_pocket.pdb
REMARK  111 active torsions:
REMARK  status: ('A' for Active; 'I' for Inactive)
REMARK    1  A    between atoms: _1  and  _3
REMARK    2  A    between atoms: _3  and  _4
REMARK    3  A    between atoms: _3  and  _6
REMARK    4  A    between atoms: _6  and  _7
REMARK    5  A    between atoms: _10  and  _12
REMARK    6  A    between atoms: _12  and  _13
REMARK    7  A    between atoms: _15  and  _17
REMARK    8  A    between atoms: _17  and  _18
REMARK    9  A    between atoms: _17  and  _20
REMARK   10  A    between atoms: _20  and  _21
REMARK   11  A    between atoms: _27  and  _28
REMARK   12  A    between atoms: _33  and  _35
REMARK   13  A    between atoms: _35  and  _36
REMARK   14  A    between atoms: _35  and  _38
REMARK   15  A    between atoms: _38  and  _39
REMARK   16  A    between atoms: _39  and  _40
REMARK   17  A    between atoms: _43  and  _45
REMARK   18  A    between atoms: _45  and  _46
REMARK   19  A    between atoms: _45  and  _48
REMARK   20  A    between atoms: _48  and  _49
REMARK   21  A    between atoms: _54  and  _55
REMARK   22  A    between atoms: _57  and  _59
REMARK   23  A    between atoms: _59  and  _60
REMARK   24  A    between atoms: _59  and  _62
REMARK   25  A    between atoms: _62  and  _63
REMARK   26  A    between atoms: _68  and  _70
REMARK   27  A    between atoms: _70  and  _71
REMARK   28  A    between atoms: _70  and  _73
REMARK   29  A    between atoms: _73  and  _74
REMARK   30  A    between atoms: _77  and  _79
REMARK   31  A    between atoms: _79  and  _80
REMARK   32  A    between atoms: _79  and  _82
REMARK   33  A    between atoms: _82  and  _83
REMARK   34  A    between atoms: _88  and  _89
REMARK   35  A    between atoms: _91  and  _93
REMARK   36  A    between atoms: _93  and  _94
REMARK   37  A    between atoms: _93  and  _96
REMARK   38  A    between atoms: _96  and  _97
REMARK   39  A    between atoms: _97  and  _98
REMARK   40  A    between atoms: _100  and  _102
REMARK   41  A    between atoms: _102  and  _103
REMARK   42  A    between atoms: _102  and  _105
REMARK   43  A    between atoms: _105  and  _106
REMARK   44  A    between atoms: _111  and  _113
REMARK   45  A    between atoms: _113  and  _114
REMARK   46  A    between atoms: _113  and  _116
REMARK   47  A    between atoms: _116  and  _117
REMARK   48  A    between atoms: _117  and  _118
REMARK   49  A    between atoms: _118  and  _119
REMARK   50  A    between atoms: _128  and  _130
REMARK   51  A    between atoms: _130  and  _131
REMARK   52  A    between atoms: _130  and  _133
REMARK   53  A    between atoms: _133  and  _134
REMARK   54  A    between atoms: _136  and  _138
REMARK   55  A    between atoms: _138  and  _139
REMARK   56  A    between atoms: _138  and  _141
REMARK   57  A    between atoms: _141  and  _142
REMARK   58  A    between atoms: _145  and  _147
REMARK   59  A    between atoms: _147  and  _148
REMARK   60  A    between atoms: _147  and  _150
REMARK   61  A    between atoms: _150  and  _151
REMARK   62  A    between atoms: _154  and  _156
REMARK   63  A    between atoms: _156  and  _157
REMARK   64  A    between atoms: _156  and  _159
REMARK   65  A    between atoms: _159  and  _160
REMARK   66  A    between atoms: _165  and  _167
REMARK   67  A    between atoms: _167  and  _168
REMARK   68  A    between atoms: _170  and  _172
REMARK   69  A    between atoms: _172  and  _173
REMARK   70  A    between atoms: _172  and  _175
REMARK   71  A    between atoms: _175  and  _176
REMARK   72  A    between atoms: _181  and  _183
REMARK   73  A    between atoms: _183  and  _184
REMARK   74  A    between atoms: _183  and  _186
REMARK   75  A    between atoms: _186  and  _187
REMARK   76  A    between atoms: _192  and  _194
REMARK   77  A    between atoms: _194  and  _195
REMARK   78  A    between atoms: _197  and  _199
REMARK   79  A    between atoms: _199  and  _200
REMARK   80  A    between atoms: _199  and  _202
REMARK   81  A    between atoms: _202  and  _203
REMARK   82  A    between atoms: _206  and  _208
REMARK   83  A    between atoms: _208  and  _209
REMARK   84  A    between atoms: _208  and  _211
REMARK   85  A    between atoms: _211  and  _212
REMARK   86  A    between atoms: _212  and  _213
REMARK   87  A    between atoms: _213  and  _214
REMARK   88  A    between atoms: _223  and  _225
REMARK   89  A    between atoms: _225  and  _226
REMARK   90  A    between atoms: _225  and  _228
REMARK   91  A    between atoms: _228  and  _229
REMARK   92  A    between atoms: _232  and  _234
REMARK   93  A    between atoms: _234  and  _235
REMARK   94  A    between atoms: _234  and  _237
REMARK   95  A    between atoms: _240  and  _242
REMARK   96  A    between atoms: _242  and  _243
REMARK   97  A    between atoms: _242  and  _245
REMARK   98  A    between atoms: _245  and  _246
REMARK   99  A    between atoms: _248  and  _250
REMARK  100  A    between atoms: _250  and  _251
REMARK  101  A    between atoms: _253  and  _255
REMARK  102  A    between atoms: _255  and  _256
REMARK  103  A    between atoms: _255  and  _258
REMARK  104  A    between atoms: _258  and  _259
REMARK  105  A    between atoms: _264  and  _266
REMARK  106  A    between atoms: _266  and  _267
REMARK  107  A    between atoms: _266  and  _269
REMARK  108  A    between atoms: _272  and  _274
REMARK  109  A    between atoms: _274  and  _275
REMARK  110  A    between atoms: _274  and  _277
REMARK  111  A    between atoms: _277  and  _278
REMARK                            x       y       z     vdW  Elec       q    Type
REMARK                         _______ _______ _______ _____ _____    ______ ____
ROOT
ATOM      1  O   HOH     1      -3.343  16.840  27.860  0.00  0.00    +0.000 OA
ENDROOT
TORSDOF 0
REMARK  Name = ../refined-set-2016/4jwk/4jwk_pocket.pdb
REMARK  111 active torsions:
REMARK  status: ('A' for Active; 'I' for Inactive)
REMARK    1  A    between atoms: _1  and  _3
REMARK    2  A    between atoms: _3  and  _4
REMARK    3  A    between atoms: _3  and  _6
REMARK    4  A    between atoms: _6  and  _7
REMARK    5  A    between atoms: _10  and  _12
REMARK    6  A    between atoms: _12  and  _13
REMARK    7  A    between atoms: _15  and  _17
REMARK    8  A    between atoms: _17  and  _18
REMARK    9  A    between atoms: _17  and  _20
REMARK   10  A    between atoms: _20  and  _21
REMARK   11  A    between atoms: _27  and  _28
REMARK   12  A    between atoms: _33  and  _35
REMARK   13  A    between atoms: _35  and  _36
REMARK   14  A    between atoms: _35  and  _38
REMARK   15  A    between atoms: _38  and  _39
REMARK   16  A    between atoms: _39  and  _40
REMARK   17  A    between atoms: _43  and  _45
REMARK   18  A    between atoms: _45  and  _46
REMARK   19  A    between atoms: _45  and  _48
REMARK   20  A    between atoms: _48  and  _49
REMARK   21  A    between atoms: _54  and  _55
REMARK   22  A    between atoms: _57  and  _59
REMARK   23  A    between atoms: _59  and  _60
REMARK   24  A    between atoms: _59  and  _62
REMARK   25  A    between atoms: _62  and  _63
REMARK   26  A    between atoms: _68  and  _70
REMARK   27  A    between atoms: _70  and  _71
REMARK   28  A    between atoms: _70  and  _73
REMARK   29  A    between atoms: _73  and  _74
REMARK   30  A    between atoms: _77  and  _79
REMARK   31  A    between atoms: _79  and  _80
REMARK   32  A    between atoms: _79  and  _82
REMARK   33  A    between atoms: _82  and  _83
REMARK   34  A    between atoms: _88  and  _89
REMARK   35  A    between atoms: _91  and  _93
REMARK   36  A    between atoms: _93  and  _94
REMARK   37  A    between atoms: _93  and  _96
REMARK   38  A    between atoms: _96  and  _97
REMARK   39  A    between atoms: _97  and  _98
REMARK   40  A    between atoms: _100  and  _102
REMARK   41  A    between atoms: _102  and  _103
REMARK   42  A    between atoms: _102  and  _105
REMARK   43  A    between atoms: _105  and  _106
REMARK   44  A    between atoms: _111  and  _113
REMARK   45  A    between atoms: _113  and  _114
REMARK   46  A    between atoms: _113  and  _116
REMARK   47  A    between atoms: _116  and  _117
REMARK   48  A    between atoms: _117  and  _118
REMARK   49  A    between atoms: _118  and  _119
REMARK   50  A    between atoms: _128  and  _130
REMARK   51  A    between atoms: _130  and  _131
REMARK   52  A    between atoms: _130  and  _133
REMARK   53  A    between atoms: _133  and  _134
REMARK   54  A    between atoms: _136  and  _138
REMARK   55  A    between atoms: _138  and  _139
REMARK   56  A    between atoms: _138  and  _141
REMARK   57  A    between atoms: _141  and  _142
REMARK   58  A    between atoms: _145  and  _147
REMARK   59  A    between atoms: _147  and  _148
REMARK   60  A    between atoms: _147  and  _150
REMARK   61  A    between atoms: _150  and  _151
REMARK   62  A    between atoms: _154  and  _156
REMARK   63  A    between atoms: _156  and  _157
REMARK   64  A    between atoms: _156  and  _159
REMARK   65  A    between atoms: _159  and  _160
REMARK   66  A    between atoms: _165  and  _167
REMARK   67  A    between atoms: _167  and  _168
REMARK   68  A    between atoms: _170  and  _172
REMARK   69  A    between atoms: _172  and  _173
REMARK   70  A    between atoms: _172  and  _175
REMARK   71  A    between atoms: _175  and  _176
REMARK   72  A    between atoms: _181  and  _183
REMARK   73  A    between atoms: _183  and  _184
REMARK   74  A    between atoms: _183  and  _186
REMARK   75  A    between atoms: _186  and  _187
REMARK   76  A    between atoms: _192  and  _194
REMARK   77  A    between atoms: _194  and  _195
REMARK   78  A    between atoms: _197  and  _199
REMARK   79  A    between atoms: _199  and  _200
REMARK   80  A    between atoms: _199  and  _202
REMARK   81  A    between atoms: _202  and  _203
REMARK   82  A    between atoms: _206  and  _208
REMARK   83  A    between atoms: _208  and  _209
REMARK   84  A    between atoms: _208  and  _211
REMARK   85  A    between atoms: _211  and  _212
REMARK   86  A    between atoms: _212  and  _213
REMARK   87  A    between atoms: _213  and  _214
REMARK   88  A    between atoms: _223  and  _225
REMARK   89  A    between atoms: _225  and  _226
REMARK   90  A    between atoms: _225  and  _228
REMARK   91  A    between atoms: _228  and  _229
REMARK   92  A    between atoms: _232  and  _234
REMARK   93  A    between atoms: _234  and  _235
REMARK   94  A    between atoms: _234  and  _237
REMARK   95  A    between atoms: _240  and  _242
REMARK   96  A    between atoms: _242  and  _243
REMARK   97  A    between atoms: _242  and  _245
REMARK   98  A    between atoms: _245  and  _246
REMARK   99  A    between atoms: _248  and  _250
REMARK  100  A    between atoms: _250  and  _251
REMARK  101  A    between atoms: _253  and  _255
REMARK  102  A    between atoms: _255  and  _256
REMARK  103  A    between atoms: _255  and  _258
REMARK  104  A    between atoms: _258  and  _259
REMARK  105  A    between atoms: _264  and  _266
REMARK  106  A    between atoms: _266  and  _267
REMARK  107  A    between atoms: _266  and  _269
REMARK  108  A    between atoms: _272  and  _274
REMARK  109  A    between atoms: _274  and  _275
REMARK  110  A    between atoms: _274  and  _277
REMARK  111  A    between atoms: _277  and  _278
REMARK                            x       y       z     vdW  Elec       q    Type
REMARK                         _______ _______ _______ _____ _____    ______ ____
ROOT
ATOM      1  O   HOH     1      -0.044   7.079  24.537  0.00  0.00    +0.000 OA
ENDROOT
TORSDOF 0
REMARK  Name = ../refined-set-2016/4jwk/4jwk_pocket.pdb
REMARK  111 active torsions:
REMARK  status: ('A' for Active; 'I' for Inactive)
REMARK    1  A    between atoms: _1  and  _3
REMARK    2  A    between atoms: _3  and  _4
REMARK    3  A    between atoms: _3  and  _6
REMARK    4  A    between atoms: _6  and  _7
REMARK    5  A    between atoms: _10  and  _12
REMARK    6  A    between atoms: _12  and  _13
REMARK    7  A    between atoms: _15  and  _17
REMARK    8  A    between atoms: _17  and  _18
REMARK    9  A    between atoms: _17  and  _20
REMARK   10  A    between atoms: _20  and  _21
REMARK   11  A    between atoms: _27  and  _28
REMARK   12  A    between atoms: _33  and  _35
REMARK   13  A    between atoms: _35  and  _36
REMARK   14  A    between atoms: _35  and  _38
REMARK   15  A    between atoms: _38  and  _39
REMARK   16  A    between atoms: _39  and  _40
REMARK   17  A    between atoms: _43  and  _45
REMARK   18  A    between atoms: _45  and  _46
REMARK   19  A    between atoms: _45  and  _48
REMARK   20  A    between atoms: _48  and  _49
REMARK   21  A    between atoms: _54  and  _55
REMARK   22  A    between atoms: _57  and  _59
REMARK   23  A    between atoms: _59  and  _60
REMARK   24  A    between atoms: _59  and  _62
REMARK   25  A    between atoms: _62  and  _63
REMARK   26  A    between atoms: _68  and  _70
REMARK   27  A    between atoms: _70  and  _71
REMARK   28  A    between atoms: _70  and  _73
REMARK   29  A    between atoms: _73  and  _74
REMARK   30  A    between atoms: _77  and  _79
REMARK   31  A    between atoms: _79  and  _80
REMARK   32  A    between atoms: _79  and  _82
REMARK   33  A    between atoms: _82  and  _83
REMARK   34  A    between atoms: _88  and  _89
REMARK   35  A    between atoms: _91  and  _93
REMARK   36  A    between atoms: _93  and  _94
REMARK   37  A    between atoms: _93  and  _96
REMARK   38  A    between atoms: _96  and  _97
REMARK   39  A    between atoms: _97  and  _98
REMARK   40  A    between atoms: _100  and  _102
REMARK   41  A    between atoms: _102  and  _103
REMARK   42  A    between atoms: _102  and  _105
REMARK   43  A    between atoms: _105  and  _106
REMARK   44  A    between atoms: _111  and  _113
REMARK   45  A    between atoms: _113  and  _114
REMARK   46  A    between atoms: _113  and  _116
REMARK   47  A    between atoms: _116  and  _117
REMARK   48  A    between atoms: _117  and  _118
REMARK   49  A    between atoms: _118  and  _119
REMARK   50  A    between atoms: _128  and  _130
REMARK   51  A    between atoms: _130  and  _131
REMARK   52  A    between atoms: _130  and  _133
REMARK   53  A    between atoms: _133  and  _134
REMARK   54  A    between atoms: _136  and  _138
REMARK   55  A    between atoms: _138  and  _139
REMARK   56  A    between atoms: _138  and  _141
REMARK   57  A    between atoms: _141  and  _142
REMARK   58  A    between atoms: _145  and  _147
REMARK   59  A    between atoms: _147  and  _148
REMARK   60  A    between atoms: _147  and  _150
REMARK   61  A    between atoms: _150  and  _151
REMARK   62  A    between atoms: _154  and  _156
REMARK   63  A    between atoms: _156  and  _157
REMARK   64  A    between atoms: _156  and  _159
REMARK   65  A    between atoms: _159  and  _160
REMARK   66  A    between atoms: _165  and  _167
REMARK   67  A    between atoms: _167  and  _168
REMARK   68  A    between atoms: _170  and  _172
REMARK   69  A    between atoms: _172  and  _173
REMARK   70  A    between atoms: _172  and  _175
REMARK   71  A    between atoms: _175  and  _176
REMARK   72  A    between atoms: _181  and  _183
REMARK   73  A    between atoms: _183  and  _184
REMARK   74  A    between atoms: _183  and  _186
REMARK   75  A    between atoms: _186  and  _187
REMARK   76  A    between atoms: _192  and  _194
REMARK   77  A    between atoms: _194  and  _195
REMARK   78  A    between atoms: _197  and  _199
REMARK   79  A    between atoms: _199  and  _200
REMARK   80  A    between atoms: _199  and  _202
REMARK   81  A    between atoms: _202  and  _203
REMARK   82  A    between atoms: _206  and  _208
REMARK   83  A    between atoms: _208  and  _209
REMARK   84  A    between atoms: _208  and  _211
REMARK   85  A    between atoms: _211  and  _212
REMARK   86  A    between atoms: _212  and  _213
REMARK   87  A    between atoms: _213  and  _214
REMARK   88  A    between atoms: _223  and  _225
REMARK   89  A    between atoms: _225  and  _226
REMARK   90  A    between atoms: _225  and  _228
REMARK   91  A    between atoms: _228  and  _229
REMARK   92  A    between atoms: _232  and  _234
REMARK   93  A    between atoms: _234  and  _235
REMARK   94  A    between atoms: _234  and  _237
REMARK   95  A    between atoms: _240  and  _242
REMARK   96  A    between atoms: _242  and  _243
REMARK   97  A    between atoms: _242  and  _245
REMARK   98  A    between atoms: _245  and  _246
REMARK   99  A    between atoms: _248  and  _250
REMARK  100  A    between atoms: _250  and  _251
REMARK  101  A    between atoms: _253  and  _255
REMARK  102  A    between atoms: _255  and  _256
REMARK  103  A    between atoms: _255  and  _258
REMARK  104  A    between atoms: _258  and  _259
REMARK  105  A    between atoms: _264  and  _266
REMARK  106  A    between atoms: _266  and  _267
REMARK  107  A    between atoms: _266  and  _269
REMARK  108  A    between atoms: _272  and  _274
REMARK  109  A    between atoms: _274  and  _275
REMARK  110  A    between atoms: _274  and  _277
REMARK  111  A    between atoms: _277  and  _278
REMARK                            x       y       z     vdW  Elec       q    Type
REMARK                         _______ _______ _______ _____ _____    ______ ____
ROOT
ATOM      1  O   HOH     1      10.369  19.441  31.671  0.00  0.00    +0.000 OA
ENDROOT
TORSDOF 0
REMARK  Name = ../refined-set-2016/4jwk/4jwk_pocket.pdb
REMARK  111 active torsions:
REMARK  status: ('A' for Active; 'I' for Inactive)
REMARK    1  A    between atoms: _1  and  _3
REMARK    2  A    between atoms: _3  and  _4
REMARK    3  A    between atoms: _3  and  _6
REMARK    4  A    between atoms: _6  and  _7
REMARK    5  A    between atoms: _10  and  _12
REMARK    6  A    between atoms: _12  and  _13
REMARK    7  A    between atoms: _15  and  _17
REMARK    8  A    between atoms: _17  and  _18
REMARK    9  A    between atoms: _17  and  _20
REMARK   10  A    between atoms: _20  and  _21
REMARK   11  A    between atoms: _27  and  _28
REMARK   12  A    between atoms: _33  and  _35
REMARK   13  A    between atoms: _35  and  _36
REMARK   14  A    between atoms: _35  and  _38
REMARK   15  A    between atoms: _38  and  _39
REMARK   16  A    between atoms: _39  and  _40
REMARK   17  A    between atoms: _43  and  _45
REMARK   18  A    between atoms: _45  and  _46
REMARK   19  A    between atoms: _45  and  _48
REMARK   20  A    between atoms: _48  and  _49
REMARK   21  A    between atoms: _54  and  _55
REMARK   22  A    between atoms: _57  and  _59
REMARK   23  A    between atoms: _59  and  _60
REMARK   24  A    between atoms: _59  and  _62
REMARK   25  A    between atoms: _62  and  _63
REMARK   26  A    between atoms: _68  and  _70
REMARK   27  A    between atoms: _70  and  _71
REMARK   28  A    between atoms: _70  and  _73
REMARK   29  A    between atoms: _73  and  _74
REMARK   30  A    between atoms: _77  and  _79
REMARK   31  A    between atoms: _79  and  _80
REMARK   32  A    between atoms: _79  and  _82
REMARK   33  A    between atoms: _82  and  _83
REMARK   34  A    between atoms: _88  and  _89
REMARK   35  A    between atoms: _91  and  _93
REMARK   36  A    between atoms: _93  and  _94
REMARK   37  A    between atoms: _93  and  _96
REMARK   38  A    between atoms: _96  and  _97
REMARK   39  A    between atoms: _97  and  _98
REMARK   40  A    between atoms: _100  and  _102
REMARK   41  A    between atoms: _102  and  _103
REMARK   42  A    between atoms: _102  and  _105
REMARK   43  A    between atoms: _105  and  _106
REMARK   44  A    between atoms: _111  and  _113
REMARK   45  A    between atoms: _113  and  _114
REMARK   46  A    between atoms: _113  and  _116
REMARK   47  A    between atoms: _116  and  _117
REMARK   48  A    between atoms: _117  and  _118
REMARK   49  A    between atoms: _118  and  _119
REMARK   50  A    between atoms: _128  and  _130
REMARK   51  A    between atoms: _130  and  _131
REMARK   52  A    between atoms: _130  and  _133
REMARK   53  A    between atoms: _133  and  _134
REMARK   54  A    between atoms: _136  and  _138
REMARK   55  A    between atoms: _138  and  _139
REMARK   56  A    between atoms: _138  and  _141
REMARK   57  A    between atoms: _141  and  _142
REMARK   58  A    between atoms: _145  and  _147
REMARK   59  A    between atoms: _147  and  _148
REMARK   60  A    between atoms: _147  and  _150
REMARK   61  A    between atoms: _150  and  _151
REMARK   62  A    between atoms: _154  and  _156
REMARK   63  A    between atoms: _156  and  _157
REMARK   64  A    between atoms: _156  and  _159
REMARK   65  A    between atoms: _159  and  _160
REMARK   66  A    between atoms: _165  and  _167
REMARK   67  A    between atoms: _167  and  _168
REMARK   68  A    between atoms: _170  and  _172
REMARK   69  A    between atoms: _172  and  _173
REMARK   70  A    between atoms: _172  and  _175
REMARK   71  A    between atoms: _175  and  _176
REMARK   72  A    between atoms: _181  and  _183
REMARK   73  A    between atoms: _183  and  _184
REMARK   74  A    between atoms: _183  and  _186
REMARK   75  A    between atoms: _186  and  _187
REMARK   76  A    between atoms: _192  and  _194
REMARK   77  A    between atoms: _194  and  _195
REMARK   78  A    between atoms: _197  and  _199
REMARK   79  A    between atoms: _199  and  _200
REMARK   80  A    between atoms: _199  and  _202
REMARK   81  A    between atoms: _202  and  _203
REMARK   82  A    between atoms: _206  and  _208
REMARK   83  A    between atoms: _208  and  _209
REMARK   84  A    between atoms: _208  and  _211
REMARK   85  A    between atoms: _211  and  _212
REMARK   86  A    between atoms: _212  and  _213
REMARK   87  A    between atoms: _213  and  _214
REMARK   88  A    between atoms: _223  and  _225
REMARK   89  A    between atoms: _225  and  _226
REMARK   90  A    between atoms: _225  and  _228
REMARK   91  A    between atoms: _228  and  _229
REMARK   92  A    between atoms: _232  and  _234
REMARK   93  A    between atoms: _234  and  _235
REMARK   94  A    between atoms: _234  and  _237
REMARK   95  A    between atoms: _240  and  _242
REMARK   96  A    between atoms: _242  and  _243
REMARK   97  A    between atoms: _242  and  _245
REMARK   98  A    between atoms: _245  and  _246
REMARK   99  A    between atoms: _248  and  _250
REMARK  100  A    between atoms: _250  and  _251
REMARK  101  A    between atoms: _253  and  _255
REMARK  102  A    between atoms: _255  and  _256
REMARK  103  A    between atoms: _255  and  _258
REMARK  104  A    between atoms: _258  and  _259
REMARK  105  A    between atoms: _264  and  _266
REMARK  106  A    between atoms: _266  and  _267
REMARK  107  A    between atoms: _266  and  _269
REMARK  108  A    between atoms: _272  and  _274
REMARK  109  A    between atoms: _274  and  _275
REMARK  110  A    between atoms: _274  and  _277
REMARK  111  A    between atoms: _277  and  _278
REMARK                            x       y       z     vdW  Elec       q    Type
REMARK                         _______ _______ _______ _____ _____    ______ ____
ROOT
ATOM      1  O   HOH     1      -3.846  17.895  23.109  0.00  0.00    +0.000 OA
ENDROOT
TORSDOF 0
REMARK  Name = ../refined-set-2016/4jwk/4jwk_pocket.pdb
REMARK  111 active torsions:
REMARK  status: ('A' for Active; 'I' for Inactive)
REMARK    1  A    between atoms: _1  and  _3
REMARK    2  A    between atoms: _3  and  _4
REMARK    3  A    between atoms: _3  and  _6
REMARK    4  A    between atoms: _6  and  _7
REMARK    5  A    between atoms: _10  and  _12
REMARK    6  A    between atoms: _12  and  _13
REMARK    7  A    between atoms: _15  and  _17
REMARK    8  A    between atoms: _17  and  _18
REMARK    9  A    between atoms: _17  and  _20
REMARK   10  A    between atoms: _20  and  _21
REMARK   11  A    between atoms: _27  and  _28
REMARK   12  A    between atoms: _33  and  _35
REMARK   13  A    between atoms: _35  and  _36
REMARK   14  A    between atoms: _35  and  _38
REMARK   15  A    between atoms: _38  and  _39
REMARK   16  A    between atoms: _39  and  _40
REMARK   17  A    between atoms: _43  and  _45
REMARK   18  A    between atoms: _45  and  _46
REMARK   19  A    between atoms: _45  and  _48
REMARK   20  A    between atoms: _48  and  _49
REMARK   21  A    between atoms: _54  and  _55
REMARK   22  A    between atoms: _57  and  _59
REMARK   23  A    between atoms: _59  and  _60
REMARK   24  A    between atoms: _59  and  _62
REMARK   25  A    between atoms: _62  and  _63
REMARK   26  A    between atoms: _68  and  _70
REMARK   27  A    between atoms: _70  and  _71
REMARK   28  A    between atoms: _70  and  _73
REMARK   29  A    between atoms: _73  and  _74
REMARK   30  A    between atoms: _77  and  _79
REMARK   31  A    between atoms: _79  and  _80
REMARK   32  A    between atoms: _79  and  _82
REMARK   33  A    between atoms: _82  and  _83
REMARK   34  A    between atoms: _88  and  _89
REMARK   35  A    between atoms: _91  and  _93
REMARK   36  A    between atoms: _93  and  _94
REMARK   37  A    between atoms: _93  and  _96
REMARK   38  A    between atoms: _96  and  _97
REMARK   39  A    between atoms: _97  and  _98
REMARK   40  A    between atoms: _100  and  _102
REMARK   41  A    between atoms: _102  and  _103
REMARK   42  A    between atoms: _102  and  _105
REMARK   43  A    between atoms: _105  and  _106
REMARK   44  A    between atoms: _111  and  _113
REMARK   45  A    between atoms: _113  and  _114
REMARK   46  A    between atoms: _113  and  _116
REMARK   47  A    between atoms: _116  and  _117
REMARK   48  A    between atoms: _117  and  _118
REMARK   49  A    between atoms: _118  and  _119
REMARK   50  A    between atoms: _128  and  _130
REMARK   51  A    between atoms: _130  and  _131
REMARK   52  A    between atoms: _130  and  _133
REMARK   53  A    between atoms: _133  and  _134
REMARK   54  A    between atoms: _136  and  _138
REMARK   55  A    between atoms: _138  and  _139
REMARK   56  A    between atoms: _138  and  _141
REMARK   57  A    between atoms: _141  and  _142
REMARK   58  A    between atoms: _145  and  _147
REMARK   59  A    between atoms: _147  and  _148
REMARK   60  A    between atoms: _147  and  _150
REMARK   61  A    between atoms: _150  and  _151
REMARK   62  A    between atoms: _154  and  _156
REMARK   63  A    between atoms: _156  and  _157
REMARK   64  A    between atoms: _156  and  _159
REMARK   65  A    between atoms: _159  and  _160
REMARK   66  A    between atoms: _165  and  _167
REMARK   67  A    between atoms: _167  and  _168
REMARK   68  A    between atoms: _170  and  _172
REMARK   69  A    between atoms: _172  and  _173
REMARK   70  A    between atoms: _172  and  _175
REMARK   71  A    between atoms: _175  and  _176
REMARK   72  A    between atoms: _181  and  _183
REMARK   73  A    between atoms: _183  and  _184
REMARK   74  A    between atoms: _183  and  _186
REMARK   75  A    between atoms: _186  and  _187
REMARK   76  A    between atoms: _192  and  _194
REMARK   77  A    between atoms: _194  and  _195
REMARK   78  A    between atoms: _197  and  _199
REMARK   79  A    between atoms: _199  and  _200
REMARK   80  A    between atoms: _199  and  _202
REMARK   81  A    between atoms: _202  and  _203
REMARK   82  A    between atoms: _206  and  _208
REMARK   83  A    between atoms: _208  and  _209
REMARK   84  A    between atoms: _208  and  _211
REMARK   85  A    between atoms: _211  and  _212
REMARK   86  A    between atoms: _212  and  _213
REMARK   87  A    between atoms: _213  and  _214
REMARK   88  A    between atoms: _223  and  _225
REMARK   89  A    between atoms: _225  and  _226
REMARK   90  A    between atoms: _225  and  _228
REMARK   91  A    between atoms: _228  and  _229
REMARK   92  A    between atoms: _232  and  _234
REMARK   93  A    between atoms: _234  and  _235
REMARK   94  A    between atoms: _234  and  _237
REMARK   95  A    between atoms: _240  and  _242
REMARK   96  A    between atoms: _242  and  _243
REMARK   97  A    between atoms: _242  and  _245
REMARK   98  A    between atoms: _245  and  _246
REMARK   99  A    between atoms: _248  and  _250
REMARK  100  A    between atoms: _250  and  _251
REMARK  101  A    between atoms: _253  and  _255
REMARK  102  A    between atoms: _255  and  _256
REMARK  103  A    between atoms: _255  and  _258
REMARK  104  A    between atoms: _258  and  _259
REMARK  105  A    between atoms: _264  and  _266
REMARK  106  A    between atoms: _266  and  _267
REMARK  107  A    between atoms: _266  and  _269
REMARK  108  A    between atoms: _272  and  _274
REMARK  109  A    between atoms: _274  and  _275
REMARK  110  A    between atoms: _274  and  _277
REMARK  111  A    between atoms: _277  and  _278
REMARK                            x       y       z     vdW  Elec       q    Type
REMARK                         _______ _______ _______ _____ _____    ______ ____
ROOT
ATOM      1  O   HOH     1      -4.290   6.702  23.553  0.00  0.00    +0.000 OA
ENDROOT
TORSDOF 0
REMARK  Name = ../refined-set-2016/4jwk/4jwk_pocket.pdb
REMARK  111 active torsions:
REMARK  status: ('A' for Active; 'I' for Inactive)
REMARK    1  A    between atoms: _1  and  _3
REMARK    2  A    between atoms: _3  and  _4
REMARK    3  A    between atoms: _3  and  _6
REMARK    4  A    between atoms: _6  and  _7
REMARK    5  A    between atoms: _10  and  _12
REMARK    6  A    between atoms: _12  and  _13
REMARK    7  A    between atoms: _15  and  _17
REMARK    8  A    between atoms: _17  and  _18
REMARK    9  A    between atoms: _17  and  _20
REMARK   10  A    between atoms: _20  and  _21
REMARK   11  A    between atoms: _27  and  _28
REMARK   12  A    between atoms: _33  and  _35
REMARK   13  A    between atoms: _35  and  _36
REMARK   14  A    between atoms: _35  and  _38
REMARK   15  A    between atoms: _38  and  _39
REMARK   16  A    between atoms: _39  and  _40
REMARK   17  A    between atoms: _43  and  _45
REMARK   18  A    between atoms: _45  and  _46
REMARK   19  A    between atoms: _45  and  _48
REMARK   20  A    between atoms: _48  and  _49
REMARK   21  A    between atoms: _54  and  _55
REMARK   22  A    between atoms: _57  and  _59
REMARK   23  A    between atoms: _59  and  _60
REMARK   24  A    between atoms: _59  and  _62
REMARK   25  A    between atoms: _62  and  _63
REMARK   26  A    between atoms: _68  and  _70
REMARK   27  A    between atoms: _70  and  _71
REMARK   28  A    between atoms: _70  and  _73
REMARK   29  A    between atoms: _73  and  _74
REMARK   30  A    between atoms: _77  and  _79
REMARK   31  A    between atoms: _79  and  _80
REMARK   32  A    between atoms: _79  and  _82
REMARK   33  A    between atoms: _82  and  _83
REMARK   34  A    between atoms: _88  and  _89
REMARK   35  A    between atoms: _91  and  _93
REMARK   36  A    between atoms: _93  and  _94
REMARK   37  A    between atoms: _93  and  _96
REMARK   38  A    between atoms: _96  and  _97
REMARK   39  A    between atoms: _97  and  _98
REMARK   40  A    between atoms: _100  and  _102
REMARK   41  A    between atoms: _102  and  _103
REMARK   42  A    between atoms: _102  and  _105
REMARK   43  A    between atoms: _105  and  _106
REMARK   44  A    between atoms: _111  and  _113
REMARK   45  A    between atoms: _113  and  _114
REMARK   46  A    between atoms: _113  and  _116
REMARK   47  A    between atoms: _116  and  _117
REMARK   48  A    between atoms: _117  and  _118
REMARK   49  A    between atoms: _118  and  _119
REMARK   50  A    between atoms: _128  and  _130
REMARK   51  A    between atoms: _130  and  _131
REMARK   52  A    between atoms: _130  and  _133
REMARK   53  A    between atoms: _133  and  _134
REMARK   54  A    between atoms: _136  and  _138
REMARK   55  A    between atoms: _138  and  _139
REMARK   56  A    between atoms: _138  and  _141
REMARK   57  A    between atoms: _141  and  _142
REMARK   58  A    between atoms: _145  and  _147
REMARK   59  A    between atoms: _147  and  _148
REMARK   60  A    between atoms: _147  and  _150
REMARK   61  A    between atoms: _150  and  _151
REMARK   62  A    between atoms: _154  and  _156
REMARK   63  A    between atoms: _156  and  _157
REMARK   64  A    between atoms: _156  and  _159
REMARK   65  A    between atoms: _159  and  _160
REMARK   66  A    between atoms: _165  and  _167
REMARK   67  A    between atoms: _167  and  _168
REMARK   68  A    between atoms: _170  and  _172
REMARK   69  A    between atoms: _172  and  _173
REMARK   70  A    between atoms: _172  and  _175
REMARK   71  A    between atoms: _175  and  _176
REMARK   72  A    between atoms: _181  and  _183
REMARK   73  A    between atoms: _183  and  _184
REMARK   74  A    between atoms: _183  and  _186
REMARK   75  A    between atoms: _186  and  _187
REMARK   76  A    between atoms: _192  and  _194
REMARK   77  A    between atoms: _194  and  _195
REMARK   78  A    between atoms: _197  and  _199
REMARK   79  A    between atoms: _199  and  _200
REMARK   80  A    between atoms: _199  and  _202
REMARK   81  A    between atoms: _202  and  _203
REMARK   82  A    between atoms: _206  and  _208
REMARK   83  A    between atoms: _208  and  _209
REMARK   84  A    between atoms: _208  and  _211
REMARK   85  A    between atoms: _211  and  _212
REMARK   86  A    between atoms: _212  and  _213
REMARK   87  A    between atoms: _213  and  _214
REMARK   88  A    between atoms: _223  and  _225
REMARK   89  A    between atoms: _225  and  _226
REMARK   90  A    between atoms: _225  and  _228
REMARK   91  A    between atoms: _228  and  _229
REMARK   92  A    between atoms: _232  and  _234
REMARK   93  A    between atoms: _234  and  _235
REMARK   94  A    between atoms: _234  and  _237
REMARK   95  A    between atoms: _240  and  _242
REMARK   96  A    between atoms: _242  and  _243
REMARK   97  A    between atoms: _242  and  _245
REMARK   98  A    between atoms: _245  and  _246
REMARK   99  A    between atoms: _248  and  _250
REMARK  100  A    between atoms: _250  and  _251
REMARK  101  A    between atoms: _253  and  _255
REMARK  102  A    between atoms: _255  and  _256
REMARK  103  A    between atoms: _255  and  _258
REMARK  104  A    between atoms: _258  and  _259
REMARK  105  A    between atoms: _264  and  _266
REMARK  106  A    between atoms: _266  and  _267
REMARK  107  A    between atoms: _266  and  _269
REMARK  108  A    between atoms: _272  and  _274
REMARK  109  A    between atoms: _274  and  _275
REMARK  110  A    between atoms: _274  and  _277
REMARK  111  A    between atoms: _277  and  _278
REMARK                            x       y       z     vdW  Elec       q    Type
REMARK                         _______ _______ _______ _____ _____    ______ ____
ROOT
ATOM      1  O   HOH     1      -1.803   9.099  26.018  0.00  0.00    +0.000 OA
ENDROOT
TORSDOF 0
REMARK  Name = ../refined-set-2016/4jwk/4jwk_pocket.pdb
REMARK  111 active torsions:
REMARK  status: ('A' for Active; 'I' for Inactive)
REMARK    1  A    between atoms: _1  and  _3
REMARK    2  A    between atoms: _3  and  _4
REMARK    3  A    between atoms: _3  and  _6
REMARK    4  A    between atoms: _6  and  _7
REMARK    5  A    between atoms: _10  and  _12
REMARK    6  A    between atoms: _12  and  _13
REMARK    7  A    between atoms: _15  and  _17
REMARK    8  A    between atoms: _17  and  _18
REMARK    9  A    between atoms: _17  and  _20
REMARK   10  A    between atoms: _20  and  _21
REMARK   11  A    between atoms: _27  and  _28
REMARK   12  A    between atoms: _33  and  _35
REMARK   13  A    between atoms: _35  and  _36
REMARK   14  A    between atoms: _35  and  _38
REMARK   15  A    between atoms: _38  and  _39
REMARK   16  A    between atoms: _39  and  _40
REMARK   17  A    between atoms: _43  and  _45
REMARK   18  A    between atoms: _45  and  _46
REMARK   19  A    between atoms: _45  and  _48
REMARK   20  A    between atoms: _48  and  _49
REMARK   21  A    between atoms: _54  and  _55
REMARK   22  A    between atoms: _57  and  _59
REMARK   23  A    between atoms: _59  and  _60
REMARK   24  A    between atoms: _59  and  _62
REMARK   25  A    between atoms: _62  and  _63
REMARK   26  A    between atoms: _68  and  _70
REMARK   27  A    between atoms: _70  and  _71
REMARK   28  A    between atoms: _70  and  _73
REMARK   29  A    between atoms: _73  and  _74
REMARK   30  A    between atoms: _77  and  _79
REMARK   31  A    between atoms: _79  and  _80
REMARK   32  A    between atoms: _79  and  _82
REMARK   33  A    between atoms: _82  and  _83
REMARK   34  A    between atoms: _88  and  _89
REMARK   35  A    between atoms: _91  and  _93
REMARK   36  A    between atoms: _93  and  _94
REMARK   37  A    between atoms: _93  and  _96
REMARK   38  A    between atoms: _96  and  _97
REMARK   39  A    between atoms: _97  and  _98
REMARK   40  A    between atoms: _100  and  _102
REMARK   41  A    between atoms: _102  and  _103
REMARK   42  A    between atoms: _102  and  _105
REMARK   43  A    between atoms: _105  and  _106
REMARK   44  A    between atoms: _111  and  _113
REMARK   45  A    between atoms: _113  and  _114
REMARK   46  A    between atoms: _113  and  _116
REMARK   47  A    between atoms: _116  and  _117
REMARK   48  A    between atoms: _117  and  _118
REMARK   49  A    between atoms: _118  and  _119
REMARK   50  A    between atoms: _128  and  _130
REMARK   51  A    between atoms: _130  and  _131
REMARK   52  A    between atoms: _130  and  _133
REMARK   53  A    between atoms: _133  and  _134
REMARK   54  A    between atoms: _136  and  _138
REMARK   55  A    between atoms: _138  and  _139
REMARK   56  A    between atoms: _138  and  _141
REMARK   57  A    between atoms: _141  and  _142
REMARK   58  A    between atoms: _145  and  _147
REMARK   59  A    between atoms: _147  and  _148
REMARK   60  A    between atoms: _147  and  _150
REMARK   61  A    between atoms: _150  and  _151
REMARK   62  A    between atoms: _154  and  _156
REMARK   63  A    between atoms: _156  and  _157
REMARK   64  A    between atoms: _156  and  _159
REMARK   65  A    between atoms: _159  and  _160
REMARK   66  A    between atoms: _165  and  _167
REMARK   67  A    between atoms: _167  and  _168
REMARK   68  A    between atoms: _170  and  _172
REMARK   69  A    between atoms: _172  and  _173
REMARK   70  A    between atoms: _172  and  _175
REMARK   71  A    between atoms: _175  and  _176
REMARK   72  A    between atoms: _181  and  _183
REMARK   73  A    between atoms: _183  and  _184
REMARK   74  A    between atoms: _183  and  _186
REMARK   75  A    between atoms: _186  and  _187
REMARK   76  A    between atoms: _192  and  _194
REMARK   77  A    between atoms: _194  and  _195
REMARK   78  A    between atoms: _197  and  _199
REMARK   79  A    between atoms: _199  and  _200
REMARK   80  A    between atoms: _199  and  _202
REMARK   81  A    between atoms: _202  and  _203
REMARK   82  A    between atoms: _206  and  _208
REMARK   83  A    between atoms: _208  and  _209
REMARK   84  A    between atoms: _208  and  _211
REMARK   85  A    between atoms: _211  and  _212
REMARK   86  A    between atoms: _212  and  _213
REMARK   87  A    between atoms: _213  and  _214
REMARK   88  A    between atoms: _223  and  _225
REMARK   89  A    between atoms: _225  and  _226
REMARK   90  A    between atoms: _225  and  _228
REMARK   91  A    between atoms: _228  and  _229
REMARK   92  A    between atoms: _232  and  _234
REMARK   93  A    between atoms: _234  and  _235
REMARK   94  A    between atoms: _234  and  _237
REMARK   95  A    between atoms: _240  and  _242
REMARK   96  A    between atoms: _242  and  _243
REMARK   97  A    between atoms: _242  and  _245
REMARK   98  A    between atoms: _245  and  _246
REMARK   99  A    between atoms: _248  and  _250
REMARK  100  A    between atoms: _250  and  _251
REMARK  101  A    between atoms: _253  and  _255
REMARK  102  A    between atoms: _255  and  _256
REMARK  103  A    between atoms: _255  and  _258
REMARK  104  A    between atoms: _258  and  _259
REMARK  105  A    between atoms: _264  and  _266
REMARK  106  A    between atoms: _266  and  _267
REMARK  107  A    between atoms: _266  and  _269
REMARK  108  A    between atoms: _272  and  _274
REMARK  109  A    between atoms: _274  and  _275
REMARK  110  A    between atoms: _274  and  _277
REMARK  111  A    between atoms: _277  and  _278
REMARK                            x       y       z     vdW  Elec       q    Type
REMARK                         _______ _______ _______ _____ _____    ______ ____
ROOT
ATOM      1  O   HOH     1      -7.112  10.277  25.906  0.00  0.00    +0.000 OA
ENDROOT
TORSDOF 0
