REMARK  Name = ../refined-set-2016/2a14/2a14_pocket.pdb
REMARK  229 active torsions:
REMARK  status: ('A' for Active; 'I' for Inactive)
REMARK    1  A    between atoms: _1  and  _5
REMARK    2  A    between atoms: _5  and  _6
REMARK    3  A    between atoms: _5  and  _8
REMARK    4  A    between atoms: _8  and  _9
REMARK    5  A    between atoms: _15  and  _17
REMARK    6  A    between atoms: _17  and  _18
REMARK    7  A    between atoms: _17  and  _20
REMARK    8  A    between atoms: _20  and  _21
REMARK    9  A    between atoms: _24  and  _26
REMARK   10  A    between atoms: _26  and  _27
REMARK   11  A    between atoms: _29  and  _31
REMARK   12  A    between atoms: _31  and  _32
REMARK   13  A    between atoms: _34  and  _36
REMARK   14  A    between atoms: _36  and  _37
REMARK   15  A    between atoms: _36  and  _39
REMARK   16  A    between atoms: _39  and  _40
REMARK   17  A    between atoms: _45  and  _46
REMARK   18  A    between atoms: _48  and  _50
REMARK   19  A    between atoms: _50  and  _51
REMARK   20  A    between atoms: _50  and  _53
REMARK   21  A    between atoms: _53  and  _54
REMARK   22  A    between atoms: _54  and  _55
REMARK   23  A    between atoms: _60  and  _62
REMARK   24  A    between atoms: _62  and  _63
REMARK   25  A    between atoms: _62  and  _65
REMARK   26  A    between atoms: _65  and  _66
REMARK   27  A    between atoms: _73  and  _74
REMARK   28  A    between atoms: _79  and  _81
REMARK   29  A    between atoms: _81  and  _82
REMARK   30  A    between atoms: _81  and  _84
REMARK   31  A    between atoms: _84  and  _85
REMARK   32  A    between atoms: _90  and  _91
REMARK   33  A    between atoms: _93  and  _95
REMARK   34  A    between atoms: _95  and  _96
REMARK   35  A    between atoms: _95  and  _98
REMARK   36  A    between atoms: _98  and  _99
REMARK   37  A    between atoms: _102  and  _104
REMARK   38  A    between atoms: _104  and  _105
REMARK   39  A    between atoms: _104  and  _107
REMARK   40  A    between atoms: _107  and  _108
REMARK   41  A    between atoms: _113  and  _114
REMARK   42  A    between atoms: _116  and  _118
REMARK   43  A    between atoms: _118  and  _119
REMARK   44  A    between atoms: _118  and  _121
REMARK   45  A    between atoms: _121  and  _122
REMARK   46  A    between atoms: _127  and  _128
REMARK   47  A    between atoms: _130  and  _132
REMARK   48  A    between atoms: _132  and  _133
REMARK   49  A    between atoms: _132  and  _135
REMARK   50  A    between atoms: _135  and  _136
REMARK   51  A    between atoms: _139  and  _141
REMARK   52  A    between atoms: _141  and  _142
REMARK   53  A    between atoms: _141  and  _144
REMARK   54  A    between atoms: _144  and  _145
REMARK   55  A    between atoms: _150  and  _152
REMARK   56  A    between atoms: _152  and  _153
REMARK   57  A    between atoms: _152  and  _155
REMARK   58  A    between atoms: _155  and  _156
REMARK   59  A    between atoms: _159  and  _161
REMARK   60  A    between atoms: _161  and  _162
REMARK   61  A    between atoms: _161  and  _164
REMARK   62  A    between atoms: _164  and  _165
REMARK   63  A    between atoms: _168  and  _170
REMARK   64  A    between atoms: _170  and  _171
REMARK   65  A    between atoms: _170  and  _173
REMARK   66  A    between atoms: _173  and  _174
REMARK   67  A    between atoms: _177  and  _179
REMARK   68  A    between atoms: _179  and  _180
REMARK   69  A    between atoms: _182  and  _184
REMARK   70  A    between atoms: _184  and  _185
REMARK   71  A    between atoms: _184  and  _187
REMARK   72  A    between atoms: _187  and  _188
REMARK   73  A    between atoms: _190  and  _192
REMARK   74  A    between atoms: _192  and  _193
REMARK   75  A    between atoms: _196  and  _197
REMARK   76  A    between atoms: _202  and  _204
REMARK   77  A    between atoms: _204  and  _205
REMARK   78  A    between atoms: _204  and  _207
REMARK   79  A    between atoms: _207  and  _208
REMARK   80  A    between atoms: _211  and  _213
REMARK   81  A    between atoms: _213  and  _214
REMARK   82  A    between atoms: _213  and  _216
REMARK   83  A    between atoms: _216  and  _217
REMARK   84  A    between atoms: _220  and  _222
REMARK   85  A    between atoms: _222  and  _223
REMARK   86  A    between atoms: _222  and  _225
REMARK   87  A    between atoms: _225  and  _226
REMARK   88  A    between atoms: _231  and  _232
REMARK   89  A    between atoms: _234  and  _236
REMARK   90  A    between atoms: _236  and  _237
REMARK   91  A    between atoms: _236  and  _239
REMARK   92  A    between atoms: _239  and  _240
REMARK   93  A    between atoms: _240  and  _241
REMARK   94  A    between atoms: _246  and  _248
REMARK   95  A    between atoms: _248  and  _249
REMARK   96  A    between atoms: _248  and  _251
REMARK   97  A    between atoms: _251  and  _252
REMARK   98  A    between atoms: _254  and  _256
REMARK   99  A    between atoms: _256  and  _257
REMARK  100  A    between atoms: _256  and  _259
REMARK  101  A    between atoms: _259  and  _260
REMARK  102  A    between atoms: _263  and  _265
REMARK  103  A    between atoms: _265  and  _266
REMARK  104  A    between atoms: _265  and  _268
REMARK  105  A    between atoms: _268  and  _269
REMARK  106  A    between atoms: _275  and  _277
REMARK  107  A    between atoms: _277  and  _278
REMARK  108  A    between atoms: _277  and  _280
REMARK  109  A    between atoms: _280  and  _281
REMARK  110  A    between atoms: _284  and  _286
REMARK  111  A    between atoms: _286  and  _287
REMARK  112  A    between atoms: _286  and  _289
REMARK  113  A    between atoms: _289  and  _290
REMARK  114  A    between atoms: _293  and  _295
REMARK  115  A    between atoms: _295  and  _296
REMARK  116  A    between atoms: _295  and  _298
REMARK  117  A    between atoms: _298  and  _299
REMARK  118  A    between atoms: _299  and  _300
REMARK  119  A    between atoms: _300  and  _301
REMARK  120  A    between atoms: _310  and  _312
REMARK  121  A    between atoms: _312  and  _313
REMARK  122  A    between atoms: _312  and  _315
REMARK  123  A    between atoms: _315  and  _316
REMARK  124  A    between atoms: _321  and  _323
REMARK  125  A    between atoms: _323  and  _324
REMARK  126  A    between atoms: _323  and  _326
REMARK  127  A    between atoms: _326  and  _327
REMARK  128  A    between atoms: _327  and  _328
REMARK  129  A    between atoms: _328  and  _329
REMARK  130  A    between atoms: _338  and  _340
REMARK  131  A    between atoms: _340  and  _341
REMARK  132  A    between atoms: _340  and  _343
REMARK  133  A    between atoms: _343  and  _344
REMARK  134  A    between atoms: _354  and  _356
REMARK  135  A    between atoms: _356  and  _357
REMARK  136  A    between atoms: _356  and  _359
REMARK  137  A    between atoms: _359  and  _360
REMARK  138  A    between atoms: _360  and  _361
REMARK  139  A    between atoms: _361  and  _362
REMARK  140  A    between atoms: _362  and  _363
REMARK  141  A    between atoms: _367  and  _369
REMARK  142  A    between atoms: _369  and  _370
REMARK  143  A    between atoms: _369  and  _372
REMARK  144  A    between atoms: _374  and  _376
REMARK  145  A    between atoms: _376  and  _377
REMARK  146  A    between atoms: _376  and  _379
REMARK  147  A    between atoms: _379  and  _380
REMARK  148  A    between atoms: _383  and  _385
REMARK  149  A    between atoms: _385  and  _386
REMARK  150  A    between atoms: _385  and  _388
REMARK  151  A    between atoms: _391  and  _393
REMARK  152  A    between atoms: _393  and  _394
REMARK  153  A    between atoms: _393  and  _396
REMARK  154  A    between atoms: _396  and  _397
REMARK  155  A    between atoms: _402  and  _404
REMARK  156  A    between atoms: _404  and  _405
REMARK  157  A    between atoms: _404  and  _407
REMARK  158  A    between atoms: _407  and  _408
REMARK  159  A    between atoms: _412  and  _413
REMARK  160  A    between atoms: _418  and  _420
REMARK  161  A    between atoms: _420  and  _421
REMARK  162  A    between atoms: _420  and  _423
REMARK  163  A    between atoms: _423  and  _424
REMARK  164  A    between atoms: _427  and  _429
REMARK  165  A    between atoms: _429  and  _430
REMARK  166  A    between atoms: _429  and  _432
REMARK  167  A    between atoms: _432  and  _433
REMARK  168  A    between atoms: _436  and  _438
REMARK  169  A    between atoms: _438  and  _439
REMARK  170  A    between atoms: _438  and  _441
REMARK  171  A    between atoms: _441  and  _442
REMARK  172  A    between atoms: _445  and  _447
REMARK  173  A    between atoms: _447  and  _448
REMARK  174  A    between atoms: _447  and  _450
REMARK  175  A    between atoms: _450  and  _451
REMARK  176  A    between atoms: _454  and  _456
REMARK  177  A    between atoms: _456  and  _457
REMARK  178  A    between atoms: _460  and  _462
REMARK  179  A    between atoms: _462  and  _463
REMARK  180  A    between atoms: _462  and  _465
REMARK  181  A    between atoms: _465  and  _466
REMARK  182  A    between atoms: _466  and  _467
REMARK  183  A    between atoms: _469  and  _471
REMARK  184  A    between atoms: _471  and  _472
REMARK  185  A    between atoms: _471  and  _474
REMARK  186  A    between atoms: _474  and  _475
REMARK  187  A    between atoms: _475  and  _476
REMARK  188  A    between atoms: _479  and  _481
REMARK  189  A    between atoms: _481  and  _482
REMARK  190  A    between atoms: _481  and  _484
REMARK  191  A    between atoms: _486  and  _488
REMARK  192  A    between atoms: _488  and  _489
REMARK  193  A    between atoms: _492  and  _494
REMARK  194  A    between atoms: _494  and  _495
REMARK  195  A    between atoms: _494  and  _497
REMARK  196  A    between atoms: _499  and  _501
REMARK  197  A    between atoms: _501  and  _502
REMARK  198  A    between atoms: _505  and  _507
REMARK  199  A    between atoms: _507  and  _508
REMARK  200  A    between atoms: _507  and  _510
REMARK  201  A    between atoms: _510  and  _511
REMARK  202  A    between atoms: _514  and  _516
REMARK  203  A    between atoms: _516  and  _517
REMARK  204  A    between atoms: _516  and  _519
REMARK  205  A    between atoms: _519  and  _520
REMARK  206  A    between atoms: _523  and  _525
REMARK  207  A    between atoms: _525  and  _526
REMARK  208  A    between atoms: _525  and  _528
REMARK  209  A    between atoms: _528  and  _529
REMARK  210  A    between atoms: _534  and  _535
REMARK  211  A    between atoms: _537  and  _539
REMARK  212  A    between atoms: _539  and  _540
REMARK  213  A    between atoms: _539  and  _542
REMARK  214  A    between atoms: _545  and  _547
REMARK  215  A    between atoms: _547  and  _548
REMARK  216  A    between atoms: _547  and  _550
REMARK  217  A    between atoms: _550  and  _551
REMARK  218  A    between atoms: _557  and  _559
REMARK  219  A    between atoms: _559  and  _560
REMARK  220  A    between atoms: _559  and  _562
REMARK  221  A    between atoms: _562  and  _563
REMARK  222  A    between atoms: _565  and  _567
REMARK  223  A    between atoms: _567  and  _568
REMARK  224  A    between atoms: _567  and  _570
REMARK  225  A    between atoms: _572  and  _574
REMARK  226  A    between atoms: _574  and  _575
REMARK  227  A    between atoms: _574  and  _577
REMARK  228  A    between atoms: _577  and  _578
REMARK  229  A    between atoms: _583  and  _584
REMARK                            x       y       z     vdW  Elec       q    Type
REMARK                         _______ _______ _______ _____ _____    ______ ____
ROOT
ATOM      1  CA  THR A   2      28.669  53.196  12.624  0.00  0.00    +0.176 C 
ENDROOT
BRANCH   1   3
ATOM      2  C   PHE A   1      27.786  55.176  13.771  0.00  0.00    +0.203 C 
ATOM      3  N   THR A   2      27.989  53.858  13.744  0.00  0.00    -0.298 N 
ATOM      4  H   THR A   2      27.655  53.281  14.542  0.00  0.00    +0.150 HD
ATOM      5  O   PHE A   1      28.116  55.927  12.846  0.00  0.00    -0.277 OA
BRANCH   2   6
ATOM      6  CA  PHE A   1      27.114  55.747  15.017  0.00  0.00    +0.017 C 
BRANCH   6   7
ATOM      7  N   PHE A   1      27.950  56.869  15.545  0.00  0.00    +0.388 N 
ATOM      8  H1  PHE A   1      27.500  57.265  16.395  0.00  0.00    -0.089 HD
ATOM      9  H2  PHE A   1      28.896  56.511  15.787  0.00  0.00    -0.089 HD
ATOM     10  H3  PHE A   1      28.034  57.609  14.819  0.00  0.00    -0.089 HD
ENDBRANCH   6   7
BRANCH   6  11
ATOM     11  CB  PHE A   1      25.698  56.242  14.682  0.00  0.00    +0.013 C 
BRANCH  11  12
ATOM     12  CG  PHE A   1      24.662  55.147  14.668  0.00  0.00    -0.024 A 
ATOM     13  CD2 PHE A   1      23.877  54.894  15.795  0.00  0.00    -0.004 A 
ATOM     14  CE2 PHE A   1      22.913  53.874  15.785  0.00  0.00    -0.000 A 
ATOM     15  CZ  PHE A   1      22.741  53.091  14.646  0.00  0.00    -0.000 A 
ATOM     16  CE1 PHE A   1      23.507  53.342  13.509  0.00  0.00    -0.000 A 
ATOM     17  CD1 PHE A   1      24.469  54.367  13.525  0.00  0.00    -0.004 A 
ENDBRANCH  11  12
ENDBRANCH   6  11
ENDBRANCH   2   6
ENDBRANCH   1   3
BRANCH   1  18
ATOM     18  C   THR A   2      27.799  53.277  11.372  0.00  0.00    +0.243 C 
ATOM     19  O   THR A   2      26.706  52.709  11.340  0.00  0.00    -0.273 OA
ATOM     20  N   GLY A   3      28.273  54.015  10.367  0.00  0.00    -0.295 N 
ATOM     21  H   GLY A   3      29.210  54.455  10.468  0.00  0.00    +0.150 HD
BRANCH  20  22
ATOM     22  CA  GLY A   3      27.528  54.229   9.131  0.00  0.00    +0.176 C 
BRANCH  22  23
ATOM     23  C   GLY A   3      27.979  53.366   7.965  0.00  0.00    +0.243 C 
ATOM     24  O   GLY A   3      28.696  52.373   8.143  0.00  0.00    -0.273 OA
ATOM     25  N   GLY A   4      27.562  53.765   6.764  0.00  0.00    -0.296 N 
ATOM     26  H   GLY A   4      27.067  54.676   6.684  0.00  0.00    +0.150 HD
BRANCH  25  27
ATOM     27  CA  GLY A   4      27.772  52.975   5.558  0.00  0.00    +0.163 C 
BRANCH  27  28
ATOM     28  C   GLY A   4      29.223  52.631   5.291  0.00  0.00    +0.229 C 
ATOM     29  O   GLY A   4      29.539  51.485   4.958  0.00  0.00    -0.286 OA
ENDBRANCH  27  28
ENDBRANCH  25  27
ENDBRANCH  22  23
ENDBRANCH  20  22
ENDBRANCH   1  18
BRANCH   1  30
ATOM     30  CB  THR A   2      28.991  51.707  12.938  0.00  0.00    +0.137 C 
ATOM     31  CG2 THR A   2      30.015  51.587  14.086  0.00  0.00    +0.034 C 
BRANCH  30  32
ATOM     32  OG1 THR A   2      27.786  51.035  13.317  0.00  0.00    -0.382 OA
ATOM     33  HG1 THR A   2      27.134  51.085  12.574  0.00  0.00    +0.210 HD
ENDBRANCH  30  32
ENDBRANCH   1  30
TORSDOF 12
REMARK  Name = ../refined-set-2016/2a14/2a14_pocket.pdb
REMARK  229 active torsions:
REMARK  status: ('A' for Active; 'I' for Inactive)
REMARK    1  A    between atoms: _1  and  _5
REMARK    2  A    between atoms: _5  and  _6
REMARK    3  A    between atoms: _5  and  _8
REMARK    4  A    between atoms: _8  and  _9
REMARK    5  A    between atoms: _15  and  _17
REMARK    6  A    between atoms: _17  and  _18
REMARK    7  A    between atoms: _17  and  _20
REMARK    8  A    between atoms: _20  and  _21
REMARK    9  A    between atoms: _24  and  _26
REMARK   10  A    between atoms: _26  and  _27
REMARK   11  A    between atoms: _29  and  _31
REMARK   12  A    between atoms: _31  and  _32
REMARK   13  A    between atoms: _34  and  _36
REMARK   14  A    between atoms: _36  and  _37
REMARK   15  A    between atoms: _36  and  _39
REMARK   16  A    between atoms: _39  and  _40
REMARK   17  A    between atoms: _45  and  _46
REMARK   18  A    between atoms: _48  and  _50
REMARK   19  A    between atoms: _50  and  _51
REMARK   20  A    between atoms: _50  and  _53
REMARK   21  A    between atoms: _53  and  _54
REMARK   22  A    between atoms: _54  and  _55
REMARK   23  A    between atoms: _60  and  _62
REMARK   24  A    between atoms: _62  and  _63
REMARK   25  A    between atoms: _62  and  _65
REMARK   26  A    between atoms: _65  and  _66
REMARK   27  A    between atoms: _73  and  _74
REMARK   28  A    between atoms: _79  and  _81
REMARK   29  A    between atoms: _81  and  _82
REMARK   30  A    between atoms: _81  and  _84
REMARK   31  A    between atoms: _84  and  _85
REMARK   32  A    between atoms: _90  and  _91
REMARK   33  A    between atoms: _93  and  _95
REMARK   34  A    between atoms: _95  and  _96
REMARK   35  A    between atoms: _95  and  _98
REMARK   36  A    between atoms: _98  and  _99
REMARK   37  A    between atoms: _102  and  _104
REMARK   38  A    between atoms: _104  and  _105
REMARK   39  A    between atoms: _104  and  _107
REMARK   40  A    between atoms: _107  and  _108
REMARK   41  A    between atoms: _113  and  _114
REMARK   42  A    between atoms: _116  and  _118
REMARK   43  A    between atoms: _118  and  _119
REMARK   44  A    between atoms: _118  and  _121
REMARK   45  A    between atoms: _121  and  _122
REMARK   46  A    between atoms: _127  and  _128
REMARK   47  A    between atoms: _130  and  _132
REMARK   48  A    between atoms: _132  and  _133
REMARK   49  A    between atoms: _132  and  _135
REMARK   50  A    between atoms: _135  and  _136
REMARK   51  A    between atoms: _139  and  _141
REMARK   52  A    between atoms: _141  and  _142
REMARK   53  A    between atoms: _141  and  _144
REMARK   54  A    between atoms: _144  and  _145
REMARK   55  A    between atoms: _150  and  _152
REMARK   56  A    between atoms: _152  and  _153
REMARK   57  A    between atoms: _152  and  _155
REMARK   58  A    between atoms: _155  and  _156
REMARK   59  A    between atoms: _159  and  _161
REMARK   60  A    between atoms: _161  and  _162
REMARK   61  A    between atoms: _161  and  _164
REMARK   62  A    between atoms: _164  and  _165
REMARK   63  A    between atoms: _168  and  _170
REMARK   64  A    between atoms: _170  and  _171
REMARK   65  A    between atoms: _170  and  _173
REMARK   66  A    between atoms: _173  and  _174
REMARK   67  A    between atoms: _177  and  _179
REMARK   68  A    between atoms: _179  and  _180
REMARK   69  A    between atoms: _182  and  _184
REMARK   70  A    between atoms: _184  and  _185
REMARK   71  A    between atoms: _184  and  _187
REMARK   72  A    between atoms: _187  and  _188
REMARK   73  A    between atoms: _190  and  _192
REMARK   74  A    between atoms: _192  and  _193
REMARK   75  A    between atoms: _196  and  _197
REMARK   76  A    between atoms: _202  and  _204
REMARK   77  A    between atoms: _204  and  _205
REMARK   78  A    between atoms: _204  and  _207
REMARK   79  A    between atoms: _207  and  _208
REMARK   80  A    between atoms: _211  and  _213
REMARK   81  A    between atoms: _213  and  _214
REMARK   82  A    between atoms: _213  and  _216
REMARK   83  A    between atoms: _216  and  _217
REMARK   84  A    between atoms: _220  and  _222
REMARK   85  A    between atoms: _222  and  _223
REMARK   86  A    between atoms: _222  and  _225
REMARK   87  A    between atoms: _225  and  _226
REMARK   88  A    between atoms: _231  and  _232
REMARK   89  A    between atoms: _234  and  _236
REMARK   90  A    between atoms: _236  and  _237
REMARK   91  A    between atoms: _236  and  _239
REMARK   92  A    between atoms: _239  and  _240
REMARK   93  A    between atoms: _240  and  _241
REMARK   94  A    between atoms: _246  and  _248
REMARK   95  A    between atoms: _248  and  _249
REMARK   96  A    between atoms: _248  and  _251
REMARK   97  A    between atoms: _251  and  _252
REMARK   98  A    between atoms: _254  and  _256
REMARK   99  A    between atoms: _256  and  _257
REMARK  100  A    between atoms: _256  and  _259
REMARK  101  A    between atoms: _259  and  _260
REMARK  102  A    between atoms: _263  and  _265
REMARK  103  A    between atoms: _265  and  _266
REMARK  104  A    between atoms: _265  and  _268
REMARK  105  A    between atoms: _268  and  _269
REMARK  106  A    between atoms: _275  and  _277
REMARK  107  A    between atoms: _277  and  _278
REMARK  108  A    between atoms: _277  and  _280
REMARK  109  A    between atoms: _280  and  _281
REMARK  110  A    between atoms: _284  and  _286
REMARK  111  A    between atoms: _286  and  _287
REMARK  112  A    between atoms: _286  and  _289
REMARK  113  A    between atoms: _289  and  _290
REMARK  114  A    between atoms: _293  and  _295
REMARK  115  A    between atoms: _295  and  _296
REMARK  116  A    between atoms: _295  and  _298
REMARK  117  A    between atoms: _298  and  _299
REMARK  118  A    between atoms: _299  and  _300
REMARK  119  A    between atoms: _300  and  _301
REMARK  120  A    between atoms: _310  and  _312
REMARK  121  A    between atoms: _312  and  _313
REMARK  122  A    between atoms: _312  and  _315
REMARK  123  A    between atoms: _315  and  _316
REMARK  124  A    between atoms: _321  and  _323
REMARK  125  A    between atoms: _323  and  _324
REMARK  126  A    between atoms: _323  and  _326
REMARK  127  A    between atoms: _326  and  _327
REMARK  128  A    between atoms: _327  and  _328
REMARK  129  A    between atoms: _328  and  _329
REMARK  130  A    between atoms: _338  and  _340
REMARK  131  A    between atoms: _340  and  _341
REMARK  132  A    between atoms: _340  and  _343
REMARK  133  A    between atoms: _343  and  _344
REMARK  134  A    between atoms: _354  and  _356
REMARK  135  A    between atoms: _356  and  _357
REMARK  136  A    between atoms: _356  and  _359
REMARK  137  A    between atoms: _359  and  _360
REMARK  138  A    between atoms: _360  and  _361
REMARK  139  A    between atoms: _361  and  _362
REMARK  140  A    between atoms: _362  and  _363
REMARK  141  A    between atoms: _367  and  _369
REMARK  142  A    between atoms: _369  and  _370
REMARK  143  A    between atoms: _369  and  _372
REMARK  144  A    between atoms: _374  and  _376
REMARK  145  A    between atoms: _376  and  _377
REMARK  146  A    between atoms: _376  and  _379
REMARK  147  A    between atoms: _379  and  _380
REMARK  148  A    between atoms: _383  and  _385
REMARK  149  A    between atoms: _385  and  _386
REMARK  150  A    between atoms: _385  and  _388
REMARK  151  A    between atoms: _391  and  _393
REMARK  152  A    between atoms: _393  and  _394
REMARK  153  A    between atoms: _393  and  _396
REMARK  154  A    between atoms: _396  and  _397
REMARK  155  A    between atoms: _402  and  _404
REMARK  156  A    between atoms: _404  and  _405
REMARK  157  A    between atoms: _404  and  _407
REMARK  158  A    between atoms: _407  and  _408
REMARK  159  A    between atoms: _412  and  _413
REMARK  160  A    between atoms: _418  and  _420
REMARK  161  A    between atoms: _420  and  _421
REMARK  162  A    between atoms: _420  and  _423
REMARK  163  A    between atoms: _423  and  _424
REMARK  164  A    between atoms: _427  and  _429
REMARK  165  A    between atoms: _429  and  _430
REMARK  166  A    between atoms: _429  and  _432
REMARK  167  A    between atoms: _432  and  _433
REMARK  168  A    between atoms: _436  and  _438
REMARK  169  A    between atoms: _438  and  _439
REMARK  170  A    between atoms: _438  and  _441
REMARK  171  A    between atoms: _441  and  _442
REMARK  172  A    between atoms: _445  and  _447
REMARK  173  A    between atoms: _447  and  _448
REMARK  174  A    between atoms: _447  and  _450
REMARK  175  A    between atoms: _450  and  _451
REMARK  176  A    between atoms: _454  and  _456
REMARK  177  A    between atoms: _456  and  _457
REMARK  178  A    between atoms: _460  and  _462
REMARK  179  A    between atoms: _462  and  _463
REMARK  180  A    between atoms: _462  and  _465
REMARK  181  A    between atoms: _465  and  _466
REMARK  182  A    between atoms: _466  and  _467
REMARK  183  A    between atoms: _469  and  _471
REMARK  184  A    between atoms: _471  and  _472
REMARK  185  A    between atoms: _471  and  _474
REMARK  186  A    between atoms: _474  and  _475
REMARK  187  A    between atoms: _475  and  _476
REMARK  188  A    between atoms: _479  and  _481
REMARK  189  A    between atoms: _481  and  _482
REMARK  190  A    between atoms: _481  and  _484
REMARK  191  A    between atoms: _486  and  _488
REMARK  192  A    between atoms: _488  and  _489
REMARK  193  A    between atoms: _492  and  _494
REMARK  194  A    between atoms: _494  and  _495
REMARK  195  A    between atoms: _494  and  _497
REMARK  196  A    between atoms: _499  and  _501
REMARK  197  A    between atoms: _501  and  _502
REMARK  198  A    between atoms: _505  and  _507
REMARK  199  A    between atoms: _507  and  _508
REMARK  200  A    between atoms: _507  and  _510
REMARK  201  A    between atoms: _510  and  _511
REMARK  202  A    between atoms: _514  and  _516
REMARK  203  A    between atoms: _516  and  _517
REMARK  204  A    between atoms: _516  and  _519
REMARK  205  A    between atoms: _519  and  _520
REMARK  206  A    between atoms: _523  and  _525
REMARK  207  A    between atoms: _525  and  _526
REMARK  208  A    between atoms: _525  and  _528
REMARK  209  A    between atoms: _528  and  _529
REMARK  210  A    between atoms: _534  and  _535
REMARK  211  A    between atoms: _537  and  _539
REMARK  212  A    between atoms: _539  and  _540
REMARK  213  A    between atoms: _539  and  _542
REMARK  214  A    between atoms: _545  and  _547
REMARK  215  A    between atoms: _547  and  _548
REMARK  216  A    between atoms: _547  and  _550
REMARK  217  A    between atoms: _550  and  _551
REMARK  218  A    between atoms: _557  and  _559
REMARK  219  A    between atoms: _559  and  _560
REMARK  220  A    between atoms: _559  and  _562
REMARK  221  A    between atoms: _562  and  _563
REMARK  222  A    between atoms: _565  and  _567
REMARK  223  A    between atoms: _567  and  _568
REMARK  224  A    between atoms: _567  and  _570
REMARK  225  A    between atoms: _572  and  _574
REMARK  226  A    between atoms: _574  and  _575
REMARK  227  A    between atoms: _574  and  _577
REMARK  228  A    between atoms: _577  and  _578
REMARK  229  A    between atoms: _583  and  _584
REMARK                            x       y       z     vdW  Elec       q    Type
REMARK                         _______ _______ _______ _____ _____    ______ ____
ROOT
ATOM      1  C   TYR A   1      30.677  48.018   5.778  0.00  0.00    +0.239 C 
ATOM      2  O   TYR A   1      31.190  46.897   5.762  0.00  0.00    -0.274 OA
ATOM      3  N   GLN A   2      30.829  48.906   4.799  0.00  0.00    -0.298 N 
ATOM      4  H   GLN A   2      30.463  49.871   4.922  0.00  0.00    +0.150 HD
ENDROOT
BRANCH   1   5
ATOM      5  CA  TYR A   1      29.836  48.465   6.968  0.00  0.00    +0.149 C 
BRANCH   5   6
ATOM      6  N   TYR A   1      30.318  49.749   7.502  0.00  0.00    -0.238 NA
ATOM      7  H   TYR A   1      29.687  50.576   7.507  0.00  0.00    +0.142 HD
ENDBRANCH   5   6
BRANCH   5   8
ATOM      8  CB  TYR A   1      28.339  48.525   6.605  0.00  0.00    +0.053 C 
BRANCH   8   9
ATOM      9  CG  TYR A   1      27.497  48.334   7.830  0.00  0.00    -0.020 A 
ATOM     10  CD2 TYR A   1      27.146  49.419   8.626  0.00  0.00    -0.001 A 
ATOM     11  CE2 TYR A   1      26.408  49.244   9.794  0.00  0.00    +0.036 A 
ATOM     12  CZ  TYR A   1      26.026  47.954  10.167  0.00  0.00    +0.134 A 
ATOM     13  CE1 TYR A   1      26.378  46.858   9.397  0.00  0.00    +0.036 A 
ATOM     14  CD1 TYR A   1      27.118  47.048   8.241  0.00  0.00    -0.001 A 
BRANCH  12  15
ATOM     15  OH  TYR A   1      25.314  47.775  11.319  0.00  0.00    -0.506 OA
ATOM     16  HH  TYR A   1      25.148  48.654  11.743  0.00  0.00    +0.292 HD
ENDBRANCH  12  15
ENDBRANCH   8   9
ENDBRANCH   5   8
ENDBRANCH   1   5
BRANCH   3  17
ATOM     17  CA  GLN A   2      31.503  48.546   3.552  0.00  0.00    +0.137 C 
BRANCH  17  18
ATOM     18  C   GLN A   2      32.941  48.084   3.796  0.00  0.00    +0.227 C 
ATOM     19  O   GLN A   2      33.396  47.103   3.200  0.00  0.00    -0.286 OA
ENDBRANCH  17  18
BRANCH  17  20
ATOM     20  CB  GLN A   2      31.472  49.705   2.558  0.00  0.00    +0.037 C 
BRANCH  20  21
ATOM     21  CG  GLN A   2      31.420  49.253   1.096  0.00  0.00    +0.087 C 
BRANCH  21  22
ATOM     22  CD  GLN A   2      30.189  48.407   0.820  0.00  0.00    +0.219 C 
ATOM     23  OE1 GLN A   2      30.233  47.180   0.911  0.00  0.00    -0.275 OA
ATOM     24  NE2 GLN A   2      29.071  49.068   0.529  0.00  0.00    -0.329 N 
ATOM     25 HE21 GLN A   2      29.083  50.106   0.463  0.00  0.00    +0.145 HD
ATOM     26 HE22 GLN A   2      28.186  48.547   0.368  0.00  0.00    +0.145 HD
ENDBRANCH  21  22
ENDBRANCH  20  21
ENDBRANCH  17  20
ENDBRANCH   3  17
TORSDOF 10
REMARK  Name = ../refined-set-2016/2a14/2a14_pocket.pdb
REMARK  229 active torsions:
REMARK  status: ('A' for Active; 'I' for Inactive)
REMARK    1  A    between atoms: _1  and  _5
REMARK    2  A    between atoms: _5  and  _6
REMARK    3  A    between atoms: _5  and  _8
REMARK    4  A    between atoms: _8  and  _9
REMARK    5  A    between atoms: _15  and  _17
REMARK    6  A    between atoms: _17  and  _18
REMARK    7  A    between atoms: _17  and  _20
REMARK    8  A    between atoms: _20  and  _21
REMARK    9  A    between atoms: _24  and  _26
REMARK   10  A    between atoms: _26  and  _27
REMARK   11  A    between atoms: _29  and  _31
REMARK   12  A    between atoms: _31  and  _32
REMARK   13  A    between atoms: _34  and  _36
REMARK   14  A    between atoms: _36  and  _37
REMARK   15  A    between atoms: _36  and  _39
REMARK   16  A    between atoms: _39  and  _40
REMARK   17  A    between atoms: _45  and  _46
REMARK   18  A    between atoms: _48  and  _50
REMARK   19  A    between atoms: _50  and  _51
REMARK   20  A    between atoms: _50  and  _53
REMARK   21  A    between atoms: _53  and  _54
REMARK   22  A    between atoms: _54  and  _55
REMARK   23  A    between atoms: _60  and  _62
REMARK   24  A    between atoms: _62  and  _63
REMARK   25  A    between atoms: _62  and  _65
REMARK   26  A    between atoms: _65  and  _66
REMARK   27  A    between atoms: _73  and  _74
REMARK   28  A    between atoms: _79  and  _81
REMARK   29  A    between atoms: _81  and  _82
REMARK   30  A    between atoms: _81  and  _84
REMARK   31  A    between atoms: _84  and  _85
REMARK   32  A    between atoms: _90  and  _91
REMARK   33  A    between atoms: _93  and  _95
REMARK   34  A    between atoms: _95  and  _96
REMARK   35  A    between atoms: _95  and  _98
REMARK   36  A    between atoms: _98  and  _99
REMARK   37  A    between atoms: _102  and  _104
REMARK   38  A    between atoms: _104  and  _105
REMARK   39  A    between atoms: _104  and  _107
REMARK   40  A    between atoms: _107  and  _108
REMARK   41  A    between atoms: _113  and  _114
REMARK   42  A    between atoms: _116  and  _118
REMARK   43  A    between atoms: _118  and  _119
REMARK   44  A    between atoms: _118  and  _121
REMARK   45  A    between atoms: _121  and  _122
REMARK   46  A    between atoms: _127  and  _128
REMARK   47  A    between atoms: _130  and  _132
REMARK   48  A    between atoms: _132  and  _133
REMARK   49  A    between atoms: _132  and  _135
REMARK   50  A    between atoms: _135  and  _136
REMARK   51  A    between atoms: _139  and  _141
REMARK   52  A    between atoms: _141  and  _142
REMARK   53  A    between atoms: _141  and  _144
REMARK   54  A    between atoms: _144  and  _145
REMARK   55  A    between atoms: _150  and  _152
REMARK   56  A    between atoms: _152  and  _153
REMARK   57  A    between atoms: _152  and  _155
REMARK   58  A    between atoms: _155  and  _156
REMARK   59  A    between atoms: _159  and  _161
REMARK   60  A    between atoms: _161  and  _162
REMARK   61  A    between atoms: _161  and  _164
REMARK   62  A    between atoms: _164  and  _165
REMARK   63  A    between atoms: _168  and  _170
REMARK   64  A    between atoms: _170  and  _171
REMARK   65  A    between atoms: _170  and  _173
REMARK   66  A    between atoms: _173  and  _174
REMARK   67  A    between atoms: _177  and  _179
REMARK   68  A    between atoms: _179  and  _180
REMARK   69  A    between atoms: _182  and  _184
REMARK   70  A    between atoms: _184  and  _185
REMARK   71  A    between atoms: _184  and  _187
REMARK   72  A    between atoms: _187  and  _188
REMARK   73  A    between atoms: _190  and  _192
REMARK   74  A    between atoms: _192  and  _193
REMARK   75  A    between atoms: _196  and  _197
REMARK   76  A    between atoms: _202  and  _204
REMARK   77  A    between atoms: _204  and  _205
REMARK   78  A    between atoms: _204  and  _207
REMARK   79  A    between atoms: _207  and  _208
REMARK   80  A    between atoms: _211  and  _213
REMARK   81  A    between atoms: _213  and  _214
REMARK   82  A    between atoms: _213  and  _216
REMARK   83  A    between atoms: _216  and  _217
REMARK   84  A    between atoms: _220  and  _222
REMARK   85  A    between atoms: _222  and  _223
REMARK   86  A    between atoms: _222  and  _225
REMARK   87  A    between atoms: _225  and  _226
REMARK   88  A    between atoms: _231  and  _232
REMARK   89  A    between atoms: _234  and  _236
REMARK   90  A    between atoms: _236  and  _237
REMARK   91  A    between atoms: _236  and  _239
REMARK   92  A    between atoms: _239  and  _240
REMARK   93  A    between atoms: _240  and  _241
REMARK   94  A    between atoms: _246  and  _248
REMARK   95  A    between atoms: _248  and  _249
REMARK   96  A    between atoms: _248  and  _251
REMARK   97  A    between atoms: _251  and  _252
REMARK   98  A    between atoms: _254  and  _256
REMARK   99  A    between atoms: _256  and  _257
REMARK  100  A    between atoms: _256  and  _259
REMARK  101  A    between atoms: _259  and  _260
REMARK  102  A    between atoms: _263  and  _265
REMARK  103  A    between atoms: _265  and  _266
REMARK  104  A    between atoms: _265  and  _268
REMARK  105  A    between atoms: _268  and  _269
REMARK  106  A    between atoms: _275  and  _277
REMARK  107  A    between atoms: _277  and  _278
REMARK  108  A    between atoms: _277  and  _280
REMARK  109  A    between atoms: _280  and  _281
REMARK  110  A    between atoms: _284  and  _286
REMARK  111  A    between atoms: _286  and  _287
REMARK  112  A    between atoms: _286  and  _289
REMARK  113  A    between atoms: _289  and  _290
REMARK  114  A    between atoms: _293  and  _295
REMARK  115  A    between atoms: _295  and  _296
REMARK  116  A    between atoms: _295  and  _298
REMARK  117  A    between atoms: _298  and  _299
REMARK  118  A    between atoms: _299  and  _300
REMARK  119  A    between atoms: _300  and  _301
REMARK  120  A    between atoms: _310  and  _312
REMARK  121  A    between atoms: _312  and  _313
REMARK  122  A    between atoms: _312  and  _315
REMARK  123  A    between atoms: _315  and  _316
REMARK  124  A    between atoms: _321  and  _323
REMARK  125  A    between atoms: _323  and  _324
REMARK  126  A    between atoms: _323  and  _326
REMARK  127  A    between atoms: _326  and  _327
REMARK  128  A    between atoms: _327  and  _328
REMARK  129  A    between atoms: _328  and  _329
REMARK  130  A    between atoms: _338  and  _340
REMARK  131  A    between atoms: _340  and  _341
REMARK  132  A    between atoms: _340  and  _343
REMARK  133  A    between atoms: _343  and  _344
REMARK  134  A    between atoms: _354  and  _356
REMARK  135  A    between atoms: _356  and  _357
REMARK  136  A    between atoms: _356  and  _359
REMARK  137  A    between atoms: _359  and  _360
REMARK  138  A    between atoms: _360  and  _361
REMARK  139  A    between atoms: _361  and  _362
REMARK  140  A    between atoms: _362  and  _363
REMARK  141  A    between atoms: _367  and  _369
REMARK  142  A    between atoms: _369  and  _370
REMARK  143  A    between atoms: _369  and  _372
REMARK  144  A    between atoms: _374  and  _376
REMARK  145  A    between atoms: _376  and  _377
REMARK  146  A    between atoms: _376  and  _379
REMARK  147  A    between atoms: _379  and  _380
REMARK  148  A    between atoms: _383  and  _385
REMARK  149  A    between atoms: _385  and  _386
REMARK  150  A    between atoms: _385  and  _388
REMARK  151  A    between atoms: _391  and  _393
REMARK  152  A    between atoms: _393  and  _394
REMARK  153  A    between atoms: _393  and  _396
REMARK  154  A    between atoms: _396  and  _397
REMARK  155  A    between atoms: _402  and  _404
REMARK  156  A    between atoms: _404  and  _405
REMARK  157  A    between atoms: _404  and  _407
REMARK  158  A    between atoms: _407  and  _408
REMARK  159  A    between atoms: _412  and  _413
REMARK  160  A    between atoms: _418  and  _420
REMARK  161  A    between atoms: _420  and  _421
REMARK  162  A    between atoms: _420  and  _423
REMARK  163  A    between atoms: _423  and  _424
REMARK  164  A    between atoms: _427  and  _429
REMARK  165  A    between atoms: _429  and  _430
REMARK  166  A    between atoms: _429  and  _432
REMARK  167  A    between atoms: _432  and  _433
REMARK  168  A    between atoms: _436  and  _438
REMARK  169  A    between atoms: _438  and  _439
REMARK  170  A    between atoms: _438  and  _441
REMARK  171  A    between atoms: _441  and  _442
REMARK  172  A    between atoms: _445  and  _447
REMARK  173  A    between atoms: _447  and  _448
REMARK  174  A    between atoms: _447  and  _450
REMARK  175  A    between atoms: _450  and  _451
REMARK  176  A    between atoms: _454  and  _456
REMARK  177  A    between atoms: _456  and  _457
REMARK  178  A    between atoms: _460  and  _462
REMARK  179  A    between atoms: _462  and  _463
REMARK  180  A    between atoms: _462  and  _465
REMARK  181  A    between atoms: _465  and  _466
REMARK  182  A    between atoms: _466  and  _467
REMARK  183  A    between atoms: _469  and  _471
REMARK  184  A    between atoms: _471  and  _472
REMARK  185  A    between atoms: _471  and  _474
REMARK  186  A    between atoms: _474  and  _475
REMARK  187  A    between atoms: _475  and  _476
REMARK  188  A    between atoms: _479  and  _481
REMARK  189  A    between atoms: _481  and  _482
REMARK  190  A    between atoms: _481  and  _484
REMARK  191  A    between atoms: _486  and  _488
REMARK  192  A    between atoms: _488  and  _489
REMARK  193  A    between atoms: _492  and  _494
REMARK  194  A    between atoms: _494  and  _495
REMARK  195  A    between atoms: _494  and  _497
REMARK  196  A    between atoms: _499  and  _501
REMARK  197  A    between atoms: _501  and  _502
REMARK  198  A    between atoms: _505  and  _507
REMARK  199  A    between atoms: _507  and  _508
REMARK  200  A    between atoms: _507  and  _510
REMARK  201  A    between atoms: _510  and  _511
REMARK  202  A    between atoms: _514  and  _516
REMARK  203  A    between atoms: _516  and  _517
REMARK  204  A    between atoms: _516  and  _519
REMARK  205  A    between atoms: _519  and  _520
REMARK  206  A    between atoms: _523  and  _525
REMARK  207  A    between atoms: _525  and  _526
REMARK  208  A    between atoms: _525  and  _528
REMARK  209  A    between atoms: _528  and  _529
REMARK  210  A    between atoms: _534  and  _535
REMARK  211  A    between atoms: _537  and  _539
REMARK  212  A    between atoms: _539  and  _540
REMARK  213  A    between atoms: _539  and  _542
REMARK  214  A    between atoms: _545  and  _547
REMARK  215  A    between atoms: _547  and  _548
REMARK  216  A    between atoms: _547  and  _550
REMARK  217  A    between atoms: _550  and  _551
REMARK  218  A    between atoms: _557  and  _559
REMARK  219  A    between atoms: _559  and  _560
REMARK  220  A    between atoms: _559  and  _562
REMARK  221  A    between atoms: _562  and  _563
REMARK  222  A    between atoms: _565  and  _567
REMARK  223  A    between atoms: _567  and  _568
REMARK  224  A    between atoms: _567  and  _570
REMARK  225  A    between atoms: _572  and  _574
REMARK  226  A    between atoms: _574  and  _575
REMARK  227  A    between atoms: _574  and  _577
REMARK  228  A    between atoms: _577  and  _578
REMARK  229  A    between atoms: _583  and  _584
REMARK                            x       y       z     vdW  Elec       q    Type
REMARK                         _______ _______ _______ _____ _____    ______ ____
ROOT
ATOM      1  CB  PHE A   1      29.930  44.579   7.746  0.00  0.00    +0.051 C 
ENDROOT
BRANCH   1   2
ATOM      2  CG  PHE A   1      28.844  43.650   8.238  0.00  0.00    -0.020 A 
ATOM      3  CD2 PHE A   1      28.117  43.958   9.391  0.00  0.00    -0.004 A 
ATOM      4  CE2 PHE A   1      27.088  43.111   9.842  0.00  0.00    -0.000 A 
ATOM      5  CZ  PHE A   1      26.791  41.946   9.139  0.00  0.00    -0.000 A 
ATOM      6  CE1 PHE A   1      27.506  41.632   7.981  0.00  0.00    -0.000 A 
ATOM      7  CD1 PHE A   1      28.524  42.487   7.535  0.00  0.00    -0.004 A 
ENDBRANCH   1   2
BRANCH   1   8
ATOM      8  CA  PHE A   1      31.348  44.157   8.154  0.00  0.00    +0.137 C 
BRANCH   8   9
ATOM      9  N   PHE A   1      32.331  45.218   7.845  0.00  0.00    -0.239 NA
ATOM     10  H   PHE A   1      32.106  45.946   7.138  0.00  0.00    +0.142 HD
ENDBRANCH   8   9
BRANCH   8  11
ATOM     11  C   PHE A   1      31.738  42.852   7.453  0.00  0.00    +0.224 C 
ATOM     12  O   PHE A   1      31.713  42.770   6.216  0.00  0.00    -0.287 OA
ENDBRANCH   8  11
ENDBRANCH   1   8
TORSDOF 4
REMARK  Name = ../refined-set-2016/2a14/2a14_pocket.pdb
REMARK  229 active torsions:
REMARK  status: ('A' for Active; 'I' for Inactive)
REMARK    1  A    between atoms: _1  and  _5
REMARK    2  A    between atoms: _5  and  _6
REMARK    3  A    between atoms: _5  and  _8
REMARK    4  A    between atoms: _8  and  _9
REMARK    5  A    between atoms: _15  and  _17
REMARK    6  A    between atoms: _17  and  _18
REMARK    7  A    between atoms: _17  and  _20
REMARK    8  A    between atoms: _20  and  _21
REMARK    9  A    between atoms: _24  and  _26
REMARK   10  A    between atoms: _26  and  _27
REMARK   11  A    between atoms: _29  and  _31
REMARK   12  A    between atoms: _31  and  _32
REMARK   13  A    between atoms: _34  and  _36
REMARK   14  A    between atoms: _36  and  _37
REMARK   15  A    between atoms: _36  and  _39
REMARK   16  A    between atoms: _39  and  _40
REMARK   17  A    between atoms: _45  and  _46
REMARK   18  A    between atoms: _48  and  _50
REMARK   19  A    between atoms: _50  and  _51
REMARK   20  A    between atoms: _50  and  _53
REMARK   21  A    between atoms: _53  and  _54
REMARK   22  A    between atoms: _54  and  _55
REMARK   23  A    between atoms: _60  and  _62
REMARK   24  A    between atoms: _62  and  _63
REMARK   25  A    between atoms: _62  and  _65
REMARK   26  A    between atoms: _65  and  _66
REMARK   27  A    between atoms: _73  and  _74
REMARK   28  A    between atoms: _79  and  _81
REMARK   29  A    between atoms: _81  and  _82
REMARK   30  A    between atoms: _81  and  _84
REMARK   31  A    between atoms: _84  and  _85
REMARK   32  A    between atoms: _90  and  _91
REMARK   33  A    between atoms: _93  and  _95
REMARK   34  A    between atoms: _95  and  _96
REMARK   35  A    between atoms: _95  and  _98
REMARK   36  A    between atoms: _98  and  _99
REMARK   37  A    between atoms: _102  and  _104
REMARK   38  A    between atoms: _104  and  _105
REMARK   39  A    between atoms: _104  and  _107
REMARK   40  A    between atoms: _107  and  _108
REMARK   41  A    between atoms: _113  and  _114
REMARK   42  A    between atoms: _116  and  _118
REMARK   43  A    between atoms: _118  and  _119
REMARK   44  A    between atoms: _118  and  _121
REMARK   45  A    between atoms: _121  and  _122
REMARK   46  A    between atoms: _127  and  _128
REMARK   47  A    between atoms: _130  and  _132
REMARK   48  A    between atoms: _132  and  _133
REMARK   49  A    between atoms: _132  and  _135
REMARK   50  A    between atoms: _135  and  _136
REMARK   51  A    between atoms: _139  and  _141
REMARK   52  A    between atoms: _141  and  _142
REMARK   53  A    between atoms: _141  and  _144
REMARK   54  A    between atoms: _144  and  _145
REMARK   55  A    between atoms: _150  and  _152
REMARK   56  A    between atoms: _152  and  _153
REMARK   57  A    between atoms: _152  and  _155
REMARK   58  A    between atoms: _155  and  _156
REMARK   59  A    between atoms: _159  and  _161
REMARK   60  A    between atoms: _161  and  _162
REMARK   61  A    between atoms: _161  and  _164
REMARK   62  A    between atoms: _164  and  _165
REMARK   63  A    between atoms: _168  and  _170
REMARK   64  A    between atoms: _170  and  _171
REMARK   65  A    between atoms: _170  and  _173
REMARK   66  A    between atoms: _173  and  _174
REMARK   67  A    between atoms: _177  and  _179
REMARK   68  A    between atoms: _179  and  _180
REMARK   69  A    between atoms: _182  and  _184
REMARK   70  A    between atoms: _184  and  _185
REMARK   71  A    between atoms: _184  and  _187
REMARK   72  A    between atoms: _187  and  _188
REMARK   73  A    between atoms: _190  and  _192
REMARK   74  A    between atoms: _192  and  _193
REMARK   75  A    between atoms: _196  and  _197
REMARK   76  A    between atoms: _202  and  _204
REMARK   77  A    between atoms: _204  and  _205
REMARK   78  A    between atoms: _204  and  _207
REMARK   79  A    between atoms: _207  and  _208
REMARK   80  A    between atoms: _211  and  _213
REMARK   81  A    between atoms: _213  and  _214
REMARK   82  A    between atoms: _213  and  _216
REMARK   83  A    between atoms: _216  and  _217
REMARK   84  A    between atoms: _220  and  _222
REMARK   85  A    between atoms: _222  and  _223
REMARK   86  A    between atoms: _222  and  _225
REMARK   87  A    between atoms: _225  and  _226
REMARK   88  A    between atoms: _231  and  _232
REMARK   89  A    between atoms: _234  and  _236
REMARK   90  A    between atoms: _236  and  _237
REMARK   91  A    between atoms: _236  and  _239
REMARK   92  A    between atoms: _239  and  _240
REMARK   93  A    between atoms: _240  and  _241
REMARK   94  A    between atoms: _246  and  _248
REMARK   95  A    between atoms: _248  and  _249
REMARK   96  A    between atoms: _248  and  _251
REMARK   97  A    between atoms: _251  and  _252
REMARK   98  A    between atoms: _254  and  _256
REMARK   99  A    between atoms: _256  and  _257
REMARK  100  A    between atoms: _256  and  _259
REMARK  101  A    between atoms: _259  and  _260
REMARK  102  A    between atoms: _263  and  _265
REMARK  103  A    between atoms: _265  and  _266
REMARK  104  A    between atoms: _265  and  _268
REMARK  105  A    between atoms: _268  and  _269
REMARK  106  A    between atoms: _275  and  _277
REMARK  107  A    between atoms: _277  and  _278
REMARK  108  A    between atoms: _277  and  _280
REMARK  109  A    between atoms: _280  and  _281
REMARK  110  A    between atoms: _284  and  _286
REMARK  111  A    between atoms: _286  and  _287
REMARK  112  A    between atoms: _286  and  _289
REMARK  113  A    between atoms: _289  and  _290
REMARK  114  A    between atoms: _293  and  _295
REMARK  115  A    between atoms: _295  and  _296
REMARK  116  A    between atoms: _295  and  _298
REMARK  117  A    between atoms: _298  and  _299
REMARK  118  A    between atoms: _299  and  _300
REMARK  119  A    between atoms: _300  and  _301
REMARK  120  A    between atoms: _310  and  _312
REMARK  121  A    between atoms: _312  and  _313
REMARK  122  A    between atoms: _312  and  _315
REMARK  123  A    between atoms: _315  and  _316
REMARK  124  A    between atoms: _321  and  _323
REMARK  125  A    between atoms: _323  and  _324
REMARK  126  A    between atoms: _323  and  _326
REMARK  127  A    between atoms: _326  and  _327
REMARK  128  A    between atoms: _327  and  _328
REMARK  129  A    between atoms: _328  and  _329
REMARK  130  A    between atoms: _338  and  _340
REMARK  131  A    between atoms: _340  and  _341
REMARK  132  A    between atoms: _340  and  _343
REMARK  133  A    between atoms: _343  and  _344
REMARK  134  A    between atoms: _354  and  _356
REMARK  135  A    between atoms: _356  and  _357
REMARK  136  A    between atoms: _356  and  _359
REMARK  137  A    between atoms: _359  and  _360
REMARK  138  A    between atoms: _360  and  _361
REMARK  139  A    between atoms: _361  and  _362
REMARK  140  A    between atoms: _362  and  _363
REMARK  141  A    between atoms: _367  and  _369
REMARK  142  A    between atoms: _369  and  _370
REMARK  143  A    between atoms: _369  and  _372
REMARK  144  A    between atoms: _374  and  _376
REMARK  145  A    between atoms: _376  and  _377
REMARK  146  A    between atoms: _376  and  _379
REMARK  147  A    between atoms: _379  and  _380
REMARK  148  A    between atoms: _383  and  _385
REMARK  149  A    between atoms: _385  and  _386
REMARK  150  A    between atoms: _385  and  _388
REMARK  151  A    between atoms: _391  and  _393
REMARK  152  A    between atoms: _393  and  _394
REMARK  153  A    between atoms: _393  and  _396
REMARK  154  A    between atoms: _396  and  _397
REMARK  155  A    between atoms: _402  and  _404
REMARK  156  A    between atoms: _404  and  _405
REMARK  157  A    between atoms: _404  and  _407
REMARK  158  A    between atoms: _407  and  _408
REMARK  159  A    between atoms: _412  and  _413
REMARK  160  A    between atoms: _418  and  _420
REMARK  161  A    between atoms: _420  and  _421
REMARK  162  A    between atoms: _420  and  _423
REMARK  163  A    between atoms: _423  and  _424
REMARK  164  A    between atoms: _427  and  _429
REMARK  165  A    between atoms: _429  and  _430
REMARK  166  A    between atoms: _429  and  _432
REMARK  167  A    between atoms: _432  and  _433
REMARK  168  A    between atoms: _436  and  _438
REMARK  169  A    between atoms: _438  and  _439
REMARK  170  A    between atoms: _438  and  _441
REMARK  171  A    between atoms: _441  and  _442
REMARK  172  A    between atoms: _445  and  _447
REMARK  173  A    between atoms: _447  and  _448
REMARK  174  A    between atoms: _447  and  _450
REMARK  175  A    between atoms: _450  and  _451
REMARK  176  A    between atoms: _454  and  _456
REMARK  177  A    between atoms: _456  and  _457
REMARK  178  A    between atoms: _460  and  _462
REMARK  179  A    between atoms: _462  and  _463
REMARK  180  A    between atoms: _462  and  _465
REMARK  181  A    between atoms: _465  and  _466
REMARK  182  A    between atoms: _466  and  _467
REMARK  183  A    between atoms: _469  and  _471
REMARK  184  A    between atoms: _471  and  _472
REMARK  185  A    between atoms: _471  and  _474
REMARK  186  A    between atoms: _474  and  _475
REMARK  187  A    between atoms: _475  and  _476
REMARK  188  A    between atoms: _479  and  _481
REMARK  189  A    between atoms: _481  and  _482
REMARK  190  A    between atoms: _481  and  _484
REMARK  191  A    between atoms: _486  and  _488
REMARK  192  A    between atoms: _488  and  _489
REMARK  193  A    between atoms: _492  and  _494
REMARK  194  A    between atoms: _494  and  _495
REMARK  195  A    between atoms: _494  and  _497
REMARK  196  A    between atoms: _499  and  _501
REMARK  197  A    between atoms: _501  and  _502
REMARK  198  A    between atoms: _505  and  _507
REMARK  199  A    between atoms: _507  and  _508
REMARK  200  A    between atoms: _507  and  _510
REMARK  201  A    between atoms: _510  and  _511
REMARK  202  A    between atoms: _514  and  _516
REMARK  203  A    between atoms: _516  and  _517
REMARK  204  A    between atoms: _516  and  _519
REMARK  205  A    between atoms: _519  and  _520
REMARK  206  A    between atoms: _523  and  _525
REMARK  207  A    between atoms: _525  and  _526
REMARK  208  A    between atoms: _525  and  _528
REMARK  209  A    between atoms: _528  and  _529
REMARK  210  A    between atoms: _534  and  _535
REMARK  211  A    between atoms: _537  and  _539
REMARK  212  A    between atoms: _539  and  _540
REMARK  213  A    between atoms: _539  and  _542
REMARK  214  A    between atoms: _545  and  _547
REMARK  215  A    between atoms: _547  and  _548
REMARK  216  A    between atoms: _547  and  _550
REMARK  217  A    between atoms: _550  and  _551
REMARK  218  A    between atoms: _557  and  _559
REMARK  219  A    between atoms: _559  and  _560
REMARK  220  A    between atoms: _559  and  _562
REMARK  221  A    between atoms: _562  and  _563
REMARK  222  A    between atoms: _565  and  _567
REMARK  223  A    between atoms: _567  and  _568
REMARK  224  A    between atoms: _567  and  _570
REMARK  225  A    between atoms: _572  and  _574
REMARK  226  A    between atoms: _574  and  _575
REMARK  227  A    between atoms: _574  and  _577
REMARK  228  A    between atoms: _577  and  _578
REMARK  229  A    between atoms: _583  and  _584
REMARK                            x       y       z     vdW  Elec       q    Type
REMARK                         _______ _______ _______ _____ _____    ______ ____
ROOT
ATOM      1  N   PRO A   1      30.849  39.078   6.753  0.00  0.00    -0.212 NA
ATOM      2  CA  PRO A   1      29.720  38.147   6.834  0.00  0.00    +0.137 C 
ATOM      3  CB  PRO A   1      29.368  37.862   5.368  0.00  0.00    +0.027 C 
ATOM      4  CG  PRO A   1      30.510  38.374   4.557  0.00  0.00    +0.021 C 
ATOM      5  CD  PRO A   1      31.160  39.454   5.362  0.00  0.00    +0.089 C 
ENDROOT
BRANCH   2   6
ATOM      6  C   PRO A   1      30.073  36.856   7.568  0.00  0.00    +0.224 C 
ATOM      7  O   PRO A   1      29.246  36.318   8.300  0.00  0.00    -0.287 OA
ENDBRANCH   2   6
TORSDOF 1
REMARK  Name = ../refined-set-2016/2a14/2a14_pocket.pdb
REMARK  229 active torsions:
REMARK  status: ('A' for Active; 'I' for Inactive)
REMARK    1  A    between atoms: _1  and  _5
REMARK    2  A    between atoms: _5  and  _6
REMARK    3  A    between atoms: _5  and  _8
REMARK    4  A    between atoms: _8  and  _9
REMARK    5  A    between atoms: _15  and  _17
REMARK    6  A    between atoms: _17  and  _18
REMARK    7  A    between atoms: _17  and  _20
REMARK    8  A    between atoms: _20  and  _21
REMARK    9  A    between atoms: _24  and  _26
REMARK   10  A    between atoms: _26  and  _27
REMARK   11  A    between atoms: _29  and  _31
REMARK   12  A    between atoms: _31  and  _32
REMARK   13  A    between atoms: _34  and  _36
REMARK   14  A    between atoms: _36  and  _37
REMARK   15  A    between atoms: _36  and  _39
REMARK   16  A    between atoms: _39  and  _40
REMARK   17  A    between atoms: _45  and  _46
REMARK   18  A    between atoms: _48  and  _50
REMARK   19  A    between atoms: _50  and  _51
REMARK   20  A    between atoms: _50  and  _53
REMARK   21  A    between atoms: _53  and  _54
REMARK   22  A    between atoms: _54  and  _55
REMARK   23  A    between atoms: _60  and  _62
REMARK   24  A    between atoms: _62  and  _63
REMARK   25  A    between atoms: _62  and  _65
REMARK   26  A    between atoms: _65  and  _66
REMARK   27  A    between atoms: _73  and  _74
REMARK   28  A    between atoms: _79  and  _81
REMARK   29  A    between atoms: _81  and  _82
REMARK   30  A    between atoms: _81  and  _84
REMARK   31  A    between atoms: _84  and  _85
REMARK   32  A    between atoms: _90  and  _91
REMARK   33  A    between atoms: _93  and  _95
REMARK   34  A    between atoms: _95  and  _96
REMARK   35  A    between atoms: _95  and  _98
REMARK   36  A    between atoms: _98  and  _99
REMARK   37  A    between atoms: _102  and  _104
REMARK   38  A    between atoms: _104  and  _105
REMARK   39  A    between atoms: _104  and  _107
REMARK   40  A    between atoms: _107  and  _108
REMARK   41  A    between atoms: _113  and  _114
REMARK   42  A    between atoms: _116  and  _118
REMARK   43  A    between atoms: _118  and  _119
REMARK   44  A    between atoms: _118  and  _121
REMARK   45  A    between atoms: _121  and  _122
REMARK   46  A    between atoms: _127  and  _128
REMARK   47  A    between atoms: _130  and  _132
REMARK   48  A    between atoms: _132  and  _133
REMARK   49  A    between atoms: _132  and  _135
REMARK   50  A    between atoms: _135  and  _136
REMARK   51  A    between atoms: _139  and  _141
REMARK   52  A    between atoms: _141  and  _142
REMARK   53  A    between atoms: _141  and  _144
REMARK   54  A    between atoms: _144  and  _145
REMARK   55  A    between atoms: _150  and  _152
REMARK   56  A    between atoms: _152  and  _153
REMARK   57  A    between atoms: _152  and  _155
REMARK   58  A    between atoms: _155  and  _156
REMARK   59  A    between atoms: _159  and  _161
REMARK   60  A    between atoms: _161  and  _162
REMARK   61  A    between atoms: _161  and  _164
REMARK   62  A    between atoms: _164  and  _165
REMARK   63  A    between atoms: _168  and  _170
REMARK   64  A    between atoms: _170  and  _171
REMARK   65  A    between atoms: _170  and  _173
REMARK   66  A    between atoms: _173  and  _174
REMARK   67  A    between atoms: _177  and  _179
REMARK   68  A    between atoms: _179  and  _180
REMARK   69  A    between atoms: _182  and  _184
REMARK   70  A    between atoms: _184  and  _185
REMARK   71  A    between atoms: _184  and  _187
REMARK   72  A    between atoms: _187  and  _188
REMARK   73  A    between atoms: _190  and  _192
REMARK   74  A    between atoms: _192  and  _193
REMARK   75  A    between atoms: _196  and  _197
REMARK   76  A    between atoms: _202  and  _204
REMARK   77  A    between atoms: _204  and  _205
REMARK   78  A    between atoms: _204  and  _207
REMARK   79  A    between atoms: _207  and  _208
REMARK   80  A    between atoms: _211  and  _213
REMARK   81  A    between atoms: _213  and  _214
REMARK   82  A    between atoms: _213  and  _216
REMARK   83  A    between atoms: _216  and  _217
REMARK   84  A    between atoms: _220  and  _222
REMARK   85  A    between atoms: _222  and  _223
REMARK   86  A    between atoms: _222  and  _225
REMARK   87  A    between atoms: _225  and  _226
REMARK   88  A    between atoms: _231  and  _232
REMARK   89  A    between atoms: _234  and  _236
REMARK   90  A    between atoms: _236  and  _237
REMARK   91  A    between atoms: _236  and  _239
REMARK   92  A    between atoms: _239  and  _240
REMARK   93  A    between atoms: _240  and  _241
REMARK   94  A    between atoms: _246  and  _248
REMARK   95  A    between atoms: _248  and  _249
REMARK   96  A    between atoms: _248  and  _251
REMARK   97  A    between atoms: _251  and  _252
REMARK   98  A    between atoms: _254  and  _256
REMARK   99  A    between atoms: _256  and  _257
REMARK  100  A    between atoms: _256  and  _259
REMARK  101  A    between atoms: _259  and  _260
REMARK  102  A    between atoms: _263  and  _265
REMARK  103  A    between atoms: _265  and  _266
REMARK  104  A    between atoms: _265  and  _268
REMARK  105  A    between atoms: _268  and  _269
REMARK  106  A    between atoms: _275  and  _277
REMARK  107  A    between atoms: _277  and  _278
REMARK  108  A    between atoms: _277  and  _280
REMARK  109  A    between atoms: _280  and  _281
REMARK  110  A    between atoms: _284  and  _286
REMARK  111  A    between atoms: _286  and  _287
REMARK  112  A    between atoms: _286  and  _289
REMARK  113  A    between atoms: _289  and  _290
REMARK  114  A    between atoms: _293  and  _295
REMARK  115  A    between atoms: _295  and  _296
REMARK  116  A    between atoms: _295  and  _298
REMARK  117  A    between atoms: _298  and  _299
REMARK  118  A    between atoms: _299  and  _300
REMARK  119  A    between atoms: _300  and  _301
REMARK  120  A    between atoms: _310  and  _312
REMARK  121  A    between atoms: _312  and  _313
REMARK  122  A    between atoms: _312  and  _315
REMARK  123  A    between atoms: _315  and  _316
REMARK  124  A    between atoms: _321  and  _323
REMARK  125  A    between atoms: _323  and  _324
REMARK  126  A    between atoms: _323  and  _326
REMARK  127  A    between atoms: _326  and  _327
REMARK  128  A    between atoms: _327  and  _328
REMARK  129  A    between atoms: _328  and  _329
REMARK  130  A    between atoms: _338  and  _340
REMARK  131  A    between atoms: _340  and  _341
REMARK  132  A    between atoms: _340  and  _343
REMARK  133  A    between atoms: _343  and  _344
REMARK  134  A    between atoms: _354  and  _356
REMARK  135  A    between atoms: _356  and  _357
REMARK  136  A    between atoms: _356  and  _359
REMARK  137  A    between atoms: _359  and  _360
REMARK  138  A    between atoms: _360  and  _361
REMARK  139  A    between atoms: _361  and  _362
REMARK  140  A    between atoms: _362  and  _363
REMARK  141  A    between atoms: _367  and  _369
REMARK  142  A    between atoms: _369  and  _370
REMARK  143  A    between atoms: _369  and  _372
REMARK  144  A    between atoms: _374  and  _376
REMARK  145  A    between atoms: _376  and  _377
REMARK  146  A    between atoms: _376  and  _379
REMARK  147  A    between atoms: _379  and  _380
REMARK  148  A    between atoms: _383  and  _385
REMARK  149  A    between atoms: _385  and  _386
REMARK  150  A    between atoms: _385  and  _388
REMARK  151  A    between atoms: _391  and  _393
REMARK  152  A    between atoms: _393  and  _394
REMARK  153  A    between atoms: _393  and  _396
REMARK  154  A    between atoms: _396  and  _397
REMARK  155  A    between atoms: _402  and  _404
REMARK  156  A    between atoms: _404  and  _405
REMARK  157  A    between atoms: _404  and  _407
REMARK  158  A    between atoms: _407  and  _408
REMARK  159  A    between atoms: _412  and  _413
REMARK  160  A    between atoms: _418  and  _420
REMARK  161  A    between atoms: _420  and  _421
REMARK  162  A    between atoms: _420  and  _423
REMARK  163  A    between atoms: _423  and  _424
REMARK  164  A    between atoms: _427  and  _429
REMARK  165  A    between atoms: _429  and  _430
REMARK  166  A    between atoms: _429  and  _432
REMARK  167  A    between atoms: _432  and  _433
REMARK  168  A    between atoms: _436  and  _438
REMARK  169  A    between atoms: _438  and  _439
REMARK  170  A    between atoms: _438  and  _441
REMARK  171  A    between atoms: _441  and  _442
REMARK  172  A    between atoms: _445  and  _447
REMARK  173  A    between atoms: _447  and  _448
REMARK  174  A    between atoms: _447  and  _450
REMARK  175  A    between atoms: _450  and  _451
REMARK  176  A    between atoms: _454  and  _456
REMARK  177  A    between atoms: _456  and  _457
REMARK  178  A    between atoms: _460  and  _462
REMARK  179  A    between atoms: _462  and  _463
REMARK  180  A    between atoms: _462  and  _465
REMARK  181  A    between atoms: _465  and  _466
REMARK  182  A    between atoms: _466  and  _467
REMARK  183  A    between atoms: _469  and  _471
REMARK  184  A    between atoms: _471  and  _472
REMARK  185  A    between atoms: _471  and  _474
REMARK  186  A    between atoms: _474  and  _475
REMARK  187  A    between atoms: _475  and  _476
REMARK  188  A    between atoms: _479  and  _481
REMARK  189  A    between atoms: _481  and  _482
REMARK  190  A    between atoms: _481  and  _484
REMARK  191  A    between atoms: _486  and  _488
REMARK  192  A    between atoms: _488  and  _489
REMARK  193  A    between atoms: _492  and  _494
REMARK  194  A    between atoms: _494  and  _495
REMARK  195  A    between atoms: _494  and  _497
REMARK  196  A    between atoms: _499  and  _501
REMARK  197  A    between atoms: _501  and  _502
REMARK  198  A    between atoms: _505  and  _507
REMARK  199  A    between atoms: _507  and  _508
REMARK  200  A    between atoms: _507  and  _510
REMARK  201  A    between atoms: _510  and  _511
REMARK  202  A    between atoms: _514  and  _516
REMARK  203  A    between atoms: _516  and  _517
REMARK  204  A    between atoms: _516  and  _519
REMARK  205  A    between atoms: _519  and  _520
REMARK  206  A    between atoms: _523  and  _525
REMARK  207  A    between atoms: _525  and  _526
REMARK  208  A    between atoms: _525  and  _528
REMARK  209  A    between atoms: _528  and  _529
REMARK  210  A    between atoms: _534  and  _535
REMARK  211  A    between atoms: _537  and  _539
REMARK  212  A    between atoms: _539  and  _540
REMARK  213  A    between atoms: _539  and  _542
REMARK  214  A    between atoms: _545  and  _547
REMARK  215  A    between atoms: _547  and  _548
REMARK  216  A    between atoms: _547  and  _550
REMARK  217  A    between atoms: _550  and  _551
REMARK  218  A    between atoms: _557  and  _559
REMARK  219  A    between atoms: _559  and  _560
REMARK  220  A    between atoms: _559  and  _562
REMARK  221  A    between atoms: _562  and  _563
REMARK  222  A    between atoms: _565  and  _567
REMARK  223  A    between atoms: _567  and  _568
REMARK  224  A    between atoms: _567  and  _570
REMARK  225  A    between atoms: _572  and  _574
REMARK  226  A    between atoms: _574  and  _575
REMARK  227  A    between atoms: _574  and  _577
REMARK  228  A    between atoms: _577  and  _578
REMARK  229  A    between atoms: _583  and  _584
REMARK                            x       y       z     vdW  Elec       q    Type
REMARK                         _______ _______ _______ _____ _____    ______ ____
ROOT
ATOM      1  CA  TYR A   1      28.325  37.694  11.460  0.00  0.00    +0.149 C 
ENDROOT
BRANCH   1   2
ATOM      2  C   TYR A   1      27.648  36.325  11.587  0.00  0.00    +0.239 C 
ATOM      3  O   TYR A   1      26.933  36.058  12.557  0.00  0.00    -0.274 OA
ATOM      4  N   LEU A   2      27.897  35.452  10.611  0.00  0.00    -0.298 N 
ATOM      5  H   LEU A   2      28.520  35.723   9.824  0.00  0.00    +0.150 HD
BRANCH   4   6
ATOM      6  CA  LEU A   2      27.302  34.115  10.637  0.00  0.00    +0.137 C 
BRANCH   6   7
ATOM      7  C   LEU A   2      27.785  33.306  11.849  0.00  0.00    +0.227 C 
ATOM      8  O   LEU A   2      27.005  32.573  12.457  0.00  0.00    -0.286 OA
ENDBRANCH   6   7
BRANCH   6   9
ATOM      9  CB  LEU A   2      27.585  33.363   9.338  0.00  0.00    +0.028 C 
BRANCH   9  10
ATOM     10  CG  LEU A   2      26.988  33.980   8.075  0.00  0.00    +0.002 C 
ATOM     11  CD2 LEU A   2      25.474  33.733   8.041  0.00  0.00    +0.000 C 
ATOM     12  CD1 LEU A   2      27.667  33.407   6.833  0.00  0.00    +0.000 C 
ENDBRANCH   9  10
ENDBRANCH   6   9
ENDBRANCH   4   6
ENDBRANCH   1   2
BRANCH   1  13
ATOM     13  N   TYR A   1      29.746  37.544  11.155  0.00  0.00    -0.238 NA
ATOM     14  H   TYR A   1      30.123  37.953  10.276  0.00  0.00    +0.142 HD
ENDBRANCH   1  13
BRANCH   1  15
ATOM     15  CB  TYR A   1      27.625  38.532  10.382  0.00  0.00    +0.053 C 
BRANCH  15  16
ATOM     16  CG  TYR A   1      26.169  38.791  10.690  0.00  0.00    -0.020 A 
ATOM     17  CD2 TYR A   1      25.797  39.694  11.698  0.00  0.00    -0.001 A 
ATOM     18  CE2 TYR A   1      24.456  39.931  11.995  0.00  0.00    +0.036 A 
ATOM     19  CZ  TYR A   1      23.475  39.266  11.275  0.00  0.00    +0.134 A 
ATOM     20  CE1 TYR A   1      23.811  38.378  10.264  0.00  0.00    +0.036 A 
ATOM     21  CD1 TYR A   1      25.160  38.133   9.980  0.00  0.00    -0.001 A 
BRANCH  19  22
ATOM     22  OH  TYR A   1      22.155  39.508  11.573  0.00  0.00    -0.506 OA
ATOM     23  HH  TYR A   1      22.100  40.162  12.314  0.00  0.00    +0.292 HD
ENDBRANCH  19  22
ENDBRANCH  15  16
ENDBRANCH   1  15
TORSDOF 9
REMARK  Name = ../refined-set-2016/2a14/2a14_pocket.pdb
REMARK  229 active torsions:
REMARK  status: ('A' for Active; 'I' for Inactive)
REMARK    1  A    between atoms: _1  and  _5
REMARK    2  A    between atoms: _5  and  _6
REMARK    3  A    between atoms: _5  and  _8
REMARK    4  A    between atoms: _8  and  _9
REMARK    5  A    between atoms: _15  and  _17
REMARK    6  A    between atoms: _17  and  _18
REMARK    7  A    between atoms: _17  and  _20
REMARK    8  A    between atoms: _20  and  _21
REMARK    9  A    between atoms: _24  and  _26
REMARK   10  A    between atoms: _26  and  _27
REMARK   11  A    between atoms: _29  and  _31
REMARK   12  A    between atoms: _31  and  _32
REMARK   13  A    between atoms: _34  and  _36
REMARK   14  A    between atoms: _36  and  _37
REMARK   15  A    between atoms: _36  and  _39
REMARK   16  A    between atoms: _39  and  _40
REMARK   17  A    between atoms: _45  and  _46
REMARK   18  A    between atoms: _48  and  _50
REMARK   19  A    between atoms: _50  and  _51
REMARK   20  A    between atoms: _50  and  _53
REMARK   21  A    between atoms: _53  and  _54
REMARK   22  A    between atoms: _54  and  _55
REMARK   23  A    between atoms: _60  and  _62
REMARK   24  A    between atoms: _62  and  _63
REMARK   25  A    between atoms: _62  and  _65
REMARK   26  A    between atoms: _65  and  _66
REMARK   27  A    between atoms: _73  and  _74
REMARK   28  A    between atoms: _79  and  _81
REMARK   29  A    between atoms: _81  and  _82
REMARK   30  A    between atoms: _81  and  _84
REMARK   31  A    between atoms: _84  and  _85
REMARK   32  A    between atoms: _90  and  _91
REMARK   33  A    between atoms: _93  and  _95
REMARK   34  A    between atoms: _95  and  _96
REMARK   35  A    between atoms: _95  and  _98
REMARK   36  A    between atoms: _98  and  _99
REMARK   37  A    between atoms: _102  and  _104
REMARK   38  A    between atoms: _104  and  _105
REMARK   39  A    between atoms: _104  and  _107
REMARK   40  A    between atoms: _107  and  _108
REMARK   41  A    between atoms: _113  and  _114
REMARK   42  A    between atoms: _116  and  _118
REMARK   43  A    between atoms: _118  and  _119
REMARK   44  A    between atoms: _118  and  _121
REMARK   45  A    between atoms: _121  and  _122
REMARK   46  A    between atoms: _127  and  _128
REMARK   47  A    between atoms: _130  and  _132
REMARK   48  A    between atoms: _132  and  _133
REMARK   49  A    between atoms: _132  and  _135
REMARK   50  A    between atoms: _135  and  _136
REMARK   51  A    between atoms: _139  and  _141
REMARK   52  A    between atoms: _141  and  _142
REMARK   53  A    between atoms: _141  and  _144
REMARK   54  A    between atoms: _144  and  _145
REMARK   55  A    between atoms: _150  and  _152
REMARK   56  A    between atoms: _152  and  _153
REMARK   57  A    between atoms: _152  and  _155
REMARK   58  A    between atoms: _155  and  _156
REMARK   59  A    between atoms: _159  and  _161
REMARK   60  A    between atoms: _161  and  _162
REMARK   61  A    between atoms: _161  and  _164
REMARK   62  A    between atoms: _164  and  _165
REMARK   63  A    between atoms: _168  and  _170
REMARK   64  A    between atoms: _170  and  _171
REMARK   65  A    between atoms: _170  and  _173
REMARK   66  A    between atoms: _173  and  _174
REMARK   67  A    between atoms: _177  and  _179
REMARK   68  A    between atoms: _179  and  _180
REMARK   69  A    between atoms: _182  and  _184
REMARK   70  A    between atoms: _184  and  _185
REMARK   71  A    between atoms: _184  and  _187
REMARK   72  A    between atoms: _187  and  _188
REMARK   73  A    between atoms: _190  and  _192
REMARK   74  A    between atoms: _192  and  _193
REMARK   75  A    between atoms: _196  and  _197
REMARK   76  A    between atoms: _202  and  _204
REMARK   77  A    between atoms: _204  and  _205
REMARK   78  A    between atoms: _204  and  _207
REMARK   79  A    between atoms: _207  and  _208
REMARK   80  A    between atoms: _211  and  _213
REMARK   81  A    between atoms: _213  and  _214
REMARK   82  A    between atoms: _213  and  _216
REMARK   83  A    between atoms: _216  and  _217
REMARK   84  A    between atoms: _220  and  _222
REMARK   85  A    between atoms: _222  and  _223
REMARK   86  A    between atoms: _222  and  _225
REMARK   87  A    between atoms: _225  and  _226
REMARK   88  A    between atoms: _231  and  _232
REMARK   89  A    between atoms: _234  and  _236
REMARK   90  A    between atoms: _236  and  _237
REMARK   91  A    between atoms: _236  and  _239
REMARK   92  A    between atoms: _239  and  _240
REMARK   93  A    between atoms: _240  and  _241
REMARK   94  A    between atoms: _246  and  _248
REMARK   95  A    between atoms: _248  and  _249
REMARK   96  A    between atoms: _248  and  _251
REMARK   97  A    between atoms: _251  and  _252
REMARK   98  A    between atoms: _254  and  _256
REMARK   99  A    between atoms: _256  and  _257
REMARK  100  A    between atoms: _256  and  _259
REMARK  101  A    between atoms: _259  and  _260
REMARK  102  A    between atoms: _263  and  _265
REMARK  103  A    between atoms: _265  and  _266
REMARK  104  A    between atoms: _265  and  _268
REMARK  105  A    between atoms: _268  and  _269
REMARK  106  A    between atoms: _275  and  _277
REMARK  107  A    between atoms: _277  and  _278
REMARK  108  A    between atoms: _277  and  _280
REMARK  109  A    between atoms: _280  and  _281
REMARK  110  A    between atoms: _284  and  _286
REMARK  111  A    between atoms: _286  and  _287
REMARK  112  A    between atoms: _286  and  _289
REMARK  113  A    between atoms: _289  and  _290
REMARK  114  A    between atoms: _293  and  _295
REMARK  115  A    between atoms: _295  and  _296
REMARK  116  A    between atoms: _295  and  _298
REMARK  117  A    between atoms: _298  and  _299
REMARK  118  A    between atoms: _299  and  _300
REMARK  119  A    between atoms: _300  and  _301
REMARK  120  A    between atoms: _310  and  _312
REMARK  121  A    between atoms: _312  and  _313
REMARK  122  A    between atoms: _312  and  _315
REMARK  123  A    between atoms: _315  and  _316
REMARK  124  A    between atoms: _321  and  _323
REMARK  125  A    between atoms: _323  and  _324
REMARK  126  A    between atoms: _323  and  _326
REMARK  127  A    between atoms: _326  and  _327
REMARK  128  A    between atoms: _327  and  _328
REMARK  129  A    between atoms: _328  and  _329
REMARK  130  A    between atoms: _338  and  _340
REMARK  131  A    between atoms: _340  and  _341
REMARK  132  A    between atoms: _340  and  _343
REMARK  133  A    between atoms: _343  and  _344
REMARK  134  A    between atoms: _354  and  _356
REMARK  135  A    between atoms: _356  and  _357
REMARK  136  A    between atoms: _356  and  _359
REMARK  137  A    between atoms: _359  and  _360
REMARK  138  A    between atoms: _360  and  _361
REMARK  139  A    between atoms: _361  and  _362
REMARK  140  A    between atoms: _362  and  _363
REMARK  141  A    between atoms: _367  and  _369
REMARK  142  A    between atoms: _369  and  _370
REMARK  143  A    between atoms: _369  and  _372
REMARK  144  A    between atoms: _374  and  _376
REMARK  145  A    between atoms: _376  and  _377
REMARK  146  A    between atoms: _376  and  _379
REMARK  147  A    between atoms: _379  and  _380
REMARK  148  A    between atoms: _383  and  _385
REMARK  149  A    between atoms: _385  and  _386
REMARK  150  A    between atoms: _385  and  _388
REMARK  151  A    between atoms: _391  and  _393
REMARK  152  A    between atoms: _393  and  _394
REMARK  153  A    between atoms: _393  and  _396
REMARK  154  A    between atoms: _396  and  _397
REMARK  155  A    between atoms: _402  and  _404
REMARK  156  A    between atoms: _404  and  _405
REMARK  157  A    between atoms: _404  and  _407
REMARK  158  A    between atoms: _407  and  _408
REMARK  159  A    between atoms: _412  and  _413
REMARK  160  A    between atoms: _418  and  _420
REMARK  161  A    between atoms: _420  and  _421
REMARK  162  A    between atoms: _420  and  _423
REMARK  163  A    between atoms: _423  and  _424
REMARK  164  A    between atoms: _427  and  _429
REMARK  165  A    between atoms: _429  and  _430
REMARK  166  A    between atoms: _429  and  _432
REMARK  167  A    between atoms: _432  and  _433
REMARK  168  A    between atoms: _436  and  _438
REMARK  169  A    between atoms: _438  and  _439
REMARK  170  A    between atoms: _438  and  _441
REMARK  171  A    between atoms: _441  and  _442
REMARK  172  A    between atoms: _445  and  _447
REMARK  173  A    between atoms: _447  and  _448
REMARK  174  A    between atoms: _447  and  _450
REMARK  175  A    between atoms: _450  and  _451
REMARK  176  A    between atoms: _454  and  _456
REMARK  177  A    between atoms: _456  and  _457
REMARK  178  A    between atoms: _460  and  _462
REMARK  179  A    between atoms: _462  and  _463
REMARK  180  A    between atoms: _462  and  _465
REMARK  181  A    between atoms: _465  and  _466
REMARK  182  A    between atoms: _466  and  _467
REMARK  183  A    between atoms: _469  and  _471
REMARK  184  A    between atoms: _471  and  _472
REMARK  185  A    between atoms: _471  and  _474
REMARK  186  A    between atoms: _474  and  _475
REMARK  187  A    between atoms: _475  and  _476
REMARK  188  A    between atoms: _479  and  _481
REMARK  189  A    between atoms: _481  and  _482
REMARK  190  A    between atoms: _481  and  _484
REMARK  191  A    between atoms: _486  and  _488
REMARK  192  A    between atoms: _488  and  _489
REMARK  193  A    between atoms: _492  and  _494
REMARK  194  A    between atoms: _494  and  _495
REMARK  195  A    between atoms: _494  and  _497
REMARK  196  A    between atoms: _499  and  _501
REMARK  197  A    between atoms: _501  and  _502
REMARK  198  A    between atoms: _505  and  _507
REMARK  199  A    between atoms: _507  and  _508
REMARK  200  A    between atoms: _507  and  _510
REMARK  201  A    between atoms: _510  and  _511
REMARK  202  A    between atoms: _514  and  _516
REMARK  203  A    between atoms: _516  and  _517
REMARK  204  A    between atoms: _516  and  _519
REMARK  205  A    between atoms: _519  and  _520
REMARK  206  A    between atoms: _523  and  _525
REMARK  207  A    between atoms: _525  and  _526
REMARK  208  A    between atoms: _525  and  _528
REMARK  209  A    between atoms: _528  and  _529
REMARK  210  A    between atoms: _534  and  _535
REMARK  211  A    between atoms: _537  and  _539
REMARK  212  A    between atoms: _539  and  _540
REMARK  213  A    between atoms: _539  and  _542
REMARK  214  A    between atoms: _545  and  _547
REMARK  215  A    between atoms: _547  and  _548
REMARK  216  A    between atoms: _547  and  _550
REMARK  217  A    between atoms: _550  and  _551
REMARK  218  A    between atoms: _557  and  _559
REMARK  219  A    between atoms: _559  and  _560
REMARK  220  A    between atoms: _559  and  _562
REMARK  221  A    between atoms: _562  and  _563
REMARK  222  A    between atoms: _565  and  _567
REMARK  223  A    between atoms: _567  and  _568
REMARK  224  A    between atoms: _567  and  _570
REMARK  225  A    between atoms: _572  and  _574
REMARK  226  A    between atoms: _574  and  _575
REMARK  227  A    between atoms: _574  and  _577
REMARK  228  A    between atoms: _577  and  _578
REMARK  229  A    between atoms: _583  and  _584
REMARK                            x       y       z     vdW  Elec       q    Type
REMARK                         _______ _______ _______ _____ _____    ______ ____
ROOT
ATOM      1  C   TYR A   1      23.729  33.455  14.607  0.00  0.00    +0.239 C 
ATOM      2  O   TYR A   1      22.597  33.118  14.934  0.00  0.00    -0.274 OA
ATOM      3  N   TYR A   2      24.465  32.781  13.721  0.00  0.00    -0.298 N 
ATOM      4  H   TYR A   2      25.452  33.066  13.560  0.00  0.00    +0.150 HD
ENDROOT
BRANCH   1   5
ATOM      5  CA  TYR A   1      24.349  34.708  15.211  0.00  0.00    +0.149 C 
BRANCH   5   6
ATOM      6  N   TYR A   1      25.815  34.796  15.106  0.00  0.00    -0.238 NA
ATOM      7  H   TYR A   1      26.241  34.976  14.174  0.00  0.00    +0.142 HD
ENDBRANCH   5   6
BRANCH   5   8
ATOM      8  CB  TYR A   1      23.673  35.979  14.635  0.00  0.00    +0.053 C 
BRANCH   8   9
ATOM      9  CG  TYR A   1      24.096  37.208  15.396  0.00  0.00    -0.020 A 
ATOM     10  CD2 TYR A   1      23.567  37.478  16.661  0.00  0.00    -0.001 A 
ATOM     11  CE2 TYR A   1      23.986  38.588  17.396  0.00  0.00    +0.036 A 
ATOM     12  CZ  TYR A   1      24.964  39.418  16.872  0.00  0.00    +0.134 A 
ATOM     13  CE1 TYR A   1      25.508  39.173  15.611  0.00  0.00    +0.036 A 
ATOM     14  CD1 TYR A   1      25.089  38.058  14.888  0.00  0.00    -0.001 A 
BRANCH  12  15
ATOM     15  OH  TYR A   1      25.381  40.505  17.605  0.00  0.00    -0.506 OA
ATOM     16  HH  TYR A   1      26.354  40.434  17.775  0.00  0.00    +0.292 HD
ENDBRANCH  12  15
ENDBRANCH   8   9
ENDBRANCH   5   8
ENDBRANCH   1   5
BRANCH   3  17
ATOM     17  CA  TYR A   2      23.917  31.654  12.973  0.00  0.00    +0.141 C 
BRANCH  17  18
ATOM     18  C   TYR A   2      24.920  30.501  12.896  0.00  0.00    +0.227 C 
ATOM     19  O   TYR A   2      25.118  29.910  11.841  0.00  0.00    -0.286 OA
ENDBRANCH  17  18
BRANCH  17  20
ATOM     20  CB  TYR A   2      23.470  32.122  11.577  0.00  0.00    +0.054 C 
BRANCH  20  21
ATOM     21  CG  TYR A   2      22.479  33.267  11.633  0.00  0.00    -0.020 A 
ATOM     22  CD2 TYR A   2      21.128  33.032  11.925  0.00  0.00    -0.001 A 
ATOM     23  CE2 TYR A   2      20.205  34.094  11.997  0.00  0.00    +0.036 A 
ATOM     24  CZ  TYR A   2      20.639  35.405  11.786  0.00  0.00    +0.134 A 
ATOM     25  CE1 TYR A   2      21.971  35.668  11.485  0.00  0.00    +0.036 A 
ATOM     26  CD1 TYR A   2      22.893  34.588  11.420  0.00  0.00    -0.001 A 
BRANCH  24  27
ATOM     27  OH  TYR A   2      19.719  36.438  11.855  0.00  0.00    -0.506 OA
ATOM     28  HH  TYR A   2      19.677  36.900  10.980  0.00  0.00    +0.292 HD
ENDBRANCH  24  27
ENDBRANCH  20  21
ENDBRANCH  17  20
ENDBRANCH   3  17
TORSDOF 10
REMARK  Name = ../refined-set-2016/2a14/2a14_pocket.pdb
REMARK  229 active torsions:
REMARK  status: ('A' for Active; 'I' for Inactive)
REMARK    1  A    between atoms: _1  and  _5
REMARK    2  A    between atoms: _5  and  _6
REMARK    3  A    between atoms: _5  and  _8
REMARK    4  A    between atoms: _8  and  _9
REMARK    5  A    between atoms: _15  and  _17
REMARK    6  A    between atoms: _17  and  _18
REMARK    7  A    between atoms: _17  and  _20
REMARK    8  A    between atoms: _20  and  _21
REMARK    9  A    between atoms: _24  and  _26
REMARK   10  A    between atoms: _26  and  _27
REMARK   11  A    between atoms: _29  and  _31
REMARK   12  A    between atoms: _31  and  _32
REMARK   13  A    between atoms: _34  and  _36
REMARK   14  A    between atoms: _36  and  _37
REMARK   15  A    between atoms: _36  and  _39
REMARK   16  A    between atoms: _39  and  _40
REMARK   17  A    between atoms: _45  and  _46
REMARK   18  A    between atoms: _48  and  _50
REMARK   19  A    between atoms: _50  and  _51
REMARK   20  A    between atoms: _50  and  _53
REMARK   21  A    between atoms: _53  and  _54
REMARK   22  A    between atoms: _54  and  _55
REMARK   23  A    between atoms: _60  and  _62
REMARK   24  A    between atoms: _62  and  _63
REMARK   25  A    between atoms: _62  and  _65
REMARK   26  A    between atoms: _65  and  _66
REMARK   27  A    between atoms: _73  and  _74
REMARK   28  A    between atoms: _79  and  _81
REMARK   29  A    between atoms: _81  and  _82
REMARK   30  A    between atoms: _81  and  _84
REMARK   31  A    between atoms: _84  and  _85
REMARK   32  A    between atoms: _90  and  _91
REMARK   33  A    between atoms: _93  and  _95
REMARK   34  A    between atoms: _95  and  _96
REMARK   35  A    between atoms: _95  and  _98
REMARK   36  A    between atoms: _98  and  _99
REMARK   37  A    between atoms: _102  and  _104
REMARK   38  A    between atoms: _104  and  _105
REMARK   39  A    between atoms: _104  and  _107
REMARK   40  A    between atoms: _107  and  _108
REMARK   41  A    between atoms: _113  and  _114
REMARK   42  A    between atoms: _116  and  _118
REMARK   43  A    between atoms: _118  and  _119
REMARK   44  A    between atoms: _118  and  _121
REMARK   45  A    between atoms: _121  and  _122
REMARK   46  A    between atoms: _127  and  _128
REMARK   47  A    between atoms: _130  and  _132
REMARK   48  A    between atoms: _132  and  _133
REMARK   49  A    between atoms: _132  and  _135
REMARK   50  A    between atoms: _135  and  _136
REMARK   51  A    between atoms: _139  and  _141
REMARK   52  A    between atoms: _141  and  _142
REMARK   53  A    between atoms: _141  and  _144
REMARK   54  A    between atoms: _144  and  _145
REMARK   55  A    between atoms: _150  and  _152
REMARK   56  A    between atoms: _152  and  _153
REMARK   57  A    between atoms: _152  and  _155
REMARK   58  A    between atoms: _155  and  _156
REMARK   59  A    between atoms: _159  and  _161
REMARK   60  A    between atoms: _161  and  _162
REMARK   61  A    between atoms: _161  and  _164
REMARK   62  A    between atoms: _164  and  _165
REMARK   63  A    between atoms: _168  and  _170
REMARK   64  A    between atoms: _170  and  _171
REMARK   65  A    between atoms: _170  and  _173
REMARK   66  A    between atoms: _173  and  _174
REMARK   67  A    between atoms: _177  and  _179
REMARK   68  A    between atoms: _179  and  _180
REMARK   69  A    between atoms: _182  and  _184
REMARK   70  A    between atoms: _184  and  _185
REMARK   71  A    between atoms: _184  and  _187
REMARK   72  A    between atoms: _187  and  _188
REMARK   73  A    between atoms: _190  and  _192
REMARK   74  A    between atoms: _192  and  _193
REMARK   75  A    between atoms: _196  and  _197
REMARK   76  A    between atoms: _202  and  _204
REMARK   77  A    between atoms: _204  and  _205
REMARK   78  A    between atoms: _204  and  _207
REMARK   79  A    between atoms: _207  and  _208
REMARK   80  A    between atoms: _211  and  _213
REMARK   81  A    between atoms: _213  and  _214
REMARK   82  A    between atoms: _213  and  _216
REMARK   83  A    between atoms: _216  and  _217
REMARK   84  A    between atoms: _220  and  _222
REMARK   85  A    between atoms: _222  and  _223
REMARK   86  A    between atoms: _222  and  _225
REMARK   87  A    between atoms: _225  and  _226
REMARK   88  A    between atoms: _231  and  _232
REMARK   89  A    between atoms: _234  and  _236
REMARK   90  A    between atoms: _236  and  _237
REMARK   91  A    between atoms: _236  and  _239
REMARK   92  A    between atoms: _239  and  _240
REMARK   93  A    between atoms: _240  and  _241
REMARK   94  A    between atoms: _246  and  _248
REMARK   95  A    between atoms: _248  and  _249
REMARK   96  A    between atoms: _248  and  _251
REMARK   97  A    between atoms: _251  and  _252
REMARK   98  A    between atoms: _254  and  _256
REMARK   99  A    between atoms: _256  and  _257
REMARK  100  A    between atoms: _256  and  _259
REMARK  101  A    between atoms: _259  and  _260
REMARK  102  A    between atoms: _263  and  _265
REMARK  103  A    between atoms: _265  and  _266
REMARK  104  A    between atoms: _265  and  _268
REMARK  105  A    between atoms: _268  and  _269
REMARK  106  A    between atoms: _275  and  _277
REMARK  107  A    between atoms: _277  and  _278
REMARK  108  A    between atoms: _277  and  _280
REMARK  109  A    between atoms: _280  and  _281
REMARK  110  A    between atoms: _284  and  _286
REMARK  111  A    between atoms: _286  and  _287
REMARK  112  A    between atoms: _286  and  _289
REMARK  113  A    between atoms: _289  and  _290
REMARK  114  A    between atoms: _293  and  _295
REMARK  115  A    between atoms: _295  and  _296
REMARK  116  A    between atoms: _295  and  _298
REMARK  117  A    between atoms: _298  and  _299
REMARK  118  A    between atoms: _299  and  _300
REMARK  119  A    between atoms: _300  and  _301
REMARK  120  A    between atoms: _310  and  _312
REMARK  121  A    between atoms: _312  and  _313
REMARK  122  A    between atoms: _312  and  _315
REMARK  123  A    between atoms: _315  and  _316
REMARK  124  A    between atoms: _321  and  _323
REMARK  125  A    between atoms: _323  and  _324
REMARK  126  A    between atoms: _323  and  _326
REMARK  127  A    between atoms: _326  and  _327
REMARK  128  A    between atoms: _327  and  _328
REMARK  129  A    between atoms: _328  and  _329
REMARK  130  A    between atoms: _338  and  _340
REMARK  131  A    between atoms: _340  and  _341
REMARK  132  A    between atoms: _340  and  _343
REMARK  133  A    between atoms: _343  and  _344
REMARK  134  A    between atoms: _354  and  _356
REMARK  135  A    between atoms: _356  and  _357
REMARK  136  A    between atoms: _356  and  _359
REMARK  137  A    between atoms: _359  and  _360
REMARK  138  A    between atoms: _360  and  _361
REMARK  139  A    between atoms: _361  and  _362
REMARK  140  A    between atoms: _362  and  _363
REMARK  141  A    between atoms: _367  and  _369
REMARK  142  A    between atoms: _369  and  _370
REMARK  143  A    between atoms: _369  and  _372
REMARK  144  A    between atoms: _374  and  _376
REMARK  145  A    between atoms: _376  and  _377
REMARK  146  A    between atoms: _376  and  _379
REMARK  147  A    between atoms: _379  and  _380
REMARK  148  A    between atoms: _383  and  _385
REMARK  149  A    between atoms: _385  and  _386
REMARK  150  A    between atoms: _385  and  _388
REMARK  151  A    between atoms: _391  and  _393
REMARK  152  A    between atoms: _393  and  _394
REMARK  153  A    between atoms: _393  and  _396
REMARK  154  A    between atoms: _396  and  _397
REMARK  155  A    between atoms: _402  and  _404
REMARK  156  A    between atoms: _404  and  _405
REMARK  157  A    between atoms: _404  and  _407
REMARK  158  A    between atoms: _407  and  _408
REMARK  159  A    between atoms: _412  and  _413
REMARK  160  A    between atoms: _418  and  _420
REMARK  161  A    between atoms: _420  and  _421
REMARK  162  A    between atoms: _420  and  _423
REMARK  163  A    between atoms: _423  and  _424
REMARK  164  A    between atoms: _427  and  _429
REMARK  165  A    between atoms: _429  and  _430
REMARK  166  A    between atoms: _429  and  _432
REMARK  167  A    between atoms: _432  and  _433
REMARK  168  A    between atoms: _436  and  _438
REMARK  169  A    between atoms: _438  and  _439
REMARK  170  A    between atoms: _438  and  _441
REMARK  171  A    between atoms: _441  and  _442
REMARK  172  A    between atoms: _445  and  _447
REMARK  173  A    between atoms: _447  and  _448
REMARK  174  A    between atoms: _447  and  _450
REMARK  175  A    between atoms: _450  and  _451
REMARK  176  A    between atoms: _454  and  _456
REMARK  177  A    between atoms: _456  and  _457
REMARK  178  A    between atoms: _460  and  _462
REMARK  179  A    between atoms: _462  and  _463
REMARK  180  A    between atoms: _462  and  _465
REMARK  181  A    between atoms: _465  and  _466
REMARK  182  A    between atoms: _466  and  _467
REMARK  183  A    between atoms: _469  and  _471
REMARK  184  A    between atoms: _471  and  _472
REMARK  185  A    between atoms: _471  and  _474
REMARK  186  A    between atoms: _474  and  _475
REMARK  187  A    between atoms: _475  and  _476
REMARK  188  A    between atoms: _479  and  _481
REMARK  189  A    between atoms: _481  and  _482
REMARK  190  A    between atoms: _481  and  _484
REMARK  191  A    between atoms: _486  and  _488
REMARK  192  A    between atoms: _488  and  _489
REMARK  193  A    between atoms: _492  and  _494
REMARK  194  A    between atoms: _494  and  _495
REMARK  195  A    between atoms: _494  and  _497
REMARK  196  A    between atoms: _499  and  _501
REMARK  197  A    between atoms: _501  and  _502
REMARK  198  A    between atoms: _505  and  _507
REMARK  199  A    between atoms: _507  and  _508
REMARK  200  A    between atoms: _507  and  _510
REMARK  201  A    between atoms: _510  and  _511
REMARK  202  A    between atoms: _514  and  _516
REMARK  203  A    between atoms: _516  and  _517
REMARK  204  A    between atoms: _516  and  _519
REMARK  205  A    between atoms: _519  and  _520
REMARK  206  A    between atoms: _523  and  _525
REMARK  207  A    between atoms: _525  and  _526
REMARK  208  A    between atoms: _525  and  _528
REMARK  209  A    between atoms: _528  and  _529
REMARK  210  A    between atoms: _534  and  _535
REMARK  211  A    between atoms: _537  and  _539
REMARK  212  A    between atoms: _539  and  _540
REMARK  213  A    between atoms: _539  and  _542
REMARK  214  A    between atoms: _545  and  _547
REMARK  215  A    between atoms: _547  and  _548
REMARK  216  A    between atoms: _547  and  _550
REMARK  217  A    between atoms: _550  and  _551
REMARK  218  A    between atoms: _557  and  _559
REMARK  219  A    between atoms: _559  and  _560
REMARK  220  A    between atoms: _559  and  _562
REMARK  221  A    between atoms: _562  and  _563
REMARK  222  A    between atoms: _565  and  _567
REMARK  223  A    between atoms: _567  and  _568
REMARK  224  A    between atoms: _567  and  _570
REMARK  225  A    between atoms: _572  and  _574
REMARK  226  A    between atoms: _574  and  _575
REMARK  227  A    between atoms: _574  and  _577
REMARK  228  A    between atoms: _577  and  _578
REMARK  229  A    between atoms: _583  and  _584
REMARK                            x       y       z     vdW  Elec       q    Type
REMARK                         _______ _______ _______ _____ _____    ______ ____
ROOT
ATOM      1  CA  LEU A   1      16.367  32.273  14.758  0.00  0.00    +0.133 C 
ENDROOT
BRANCH   1   2
ATOM      2  N   LEU A   1      16.614  32.849  16.076  0.00  0.00    -0.239 NA
ATOM      3  H   LEU A   1      17.500  32.619  16.569  0.00  0.00    +0.142 HD
ENDBRANCH   1   2
BRANCH   1   4
ATOM      4  C   LEU A   1      15.052  31.495  14.724  0.00  0.00    +0.224 C 
ATOM      5  O   LEU A   1      14.248  31.659  13.799  0.00  0.00    -0.287 OA
ENDBRANCH   1   4
BRANCH   1   6
ATOM      6  CB  LEU A   1      17.535  31.372  14.336  0.00  0.00    +0.025 C 
BRANCH   6   7
ATOM      7  CG  LEU A   1      17.427  30.603  13.005  0.00  0.00    +0.002 C 
ATOM      8  CD2 LEU A   1      18.690  29.759  12.797  0.00  0.00    +0.000 C 
ATOM      9  CD1 LEU A   1      17.181  31.501  11.800  0.00  0.00    +0.000 C 
ENDBRANCH   6   7
ENDBRANCH   1   6
TORSDOF 4
REMARK  Name = ../refined-set-2016/2a14/2a14_pocket.pdb
REMARK  229 active torsions:
REMARK  status: ('A' for Active; 'I' for Inactive)
REMARK    1  A    between atoms: _1  and  _5
REMARK    2  A    between atoms: _5  and  _6
REMARK    3  A    between atoms: _5  and  _8
REMARK    4  A    between atoms: _8  and  _9
REMARK    5  A    between atoms: _15  and  _17
REMARK    6  A    between atoms: _17  and  _18
REMARK    7  A    between atoms: _17  and  _20
REMARK    8  A    between atoms: _20  and  _21
REMARK    9  A    between atoms: _24  and  _26
REMARK   10  A    between atoms: _26  and  _27
REMARK   11  A    between atoms: _29  and  _31
REMARK   12  A    between atoms: _31  and  _32
REMARK   13  A    between atoms: _34  and  _36
REMARK   14  A    between atoms: _36  and  _37
REMARK   15  A    between atoms: _36  and  _39
REMARK   16  A    between atoms: _39  and  _40
REMARK   17  A    between atoms: _45  and  _46
REMARK   18  A    between atoms: _48  and  _50
REMARK   19  A    between atoms: _50  and  _51
REMARK   20  A    between atoms: _50  and  _53
REMARK   21  A    between atoms: _53  and  _54
REMARK   22  A    between atoms: _54  and  _55
REMARK   23  A    between atoms: _60  and  _62
REMARK   24  A    between atoms: _62  and  _63
REMARK   25  A    between atoms: _62  and  _65
REMARK   26  A    between atoms: _65  and  _66
REMARK   27  A    between atoms: _73  and  _74
REMARK   28  A    between atoms: _79  and  _81
REMARK   29  A    between atoms: _81  and  _82
REMARK   30  A    between atoms: _81  and  _84
REMARK   31  A    between atoms: _84  and  _85
REMARK   32  A    between atoms: _90  and  _91
REMARK   33  A    between atoms: _93  and  _95
REMARK   34  A    between atoms: _95  and  _96
REMARK   35  A    between atoms: _95  and  _98
REMARK   36  A    between atoms: _98  and  _99
REMARK   37  A    between atoms: _102  and  _104
REMARK   38  A    between atoms: _104  and  _105
REMARK   39  A    between atoms: _104  and  _107
REMARK   40  A    between atoms: _107  and  _108
REMARK   41  A    between atoms: _113  and  _114
REMARK   42  A    between atoms: _116  and  _118
REMARK   43  A    between atoms: _118  and  _119
REMARK   44  A    between atoms: _118  and  _121
REMARK   45  A    between atoms: _121  and  _122
REMARK   46  A    between atoms: _127  and  _128
REMARK   47  A    between atoms: _130  and  _132
REMARK   48  A    between atoms: _132  and  _133
REMARK   49  A    between atoms: _132  and  _135
REMARK   50  A    between atoms: _135  and  _136
REMARK   51  A    between atoms: _139  and  _141
REMARK   52  A    between atoms: _141  and  _142
REMARK   53  A    between atoms: _141  and  _144
REMARK   54  A    between atoms: _144  and  _145
REMARK   55  A    between atoms: _150  and  _152
REMARK   56  A    between atoms: _152  and  _153
REMARK   57  A    between atoms: _152  and  _155
REMARK   58  A    between atoms: _155  and  _156
REMARK   59  A    between atoms: _159  and  _161
REMARK   60  A    between atoms: _161  and  _162
REMARK   61  A    between atoms: _161  and  _164
REMARK   62  A    between atoms: _164  and  _165
REMARK   63  A    between atoms: _168  and  _170
REMARK   64  A    between atoms: _170  and  _171
REMARK   65  A    between atoms: _170  and  _173
REMARK   66  A    between atoms: _173  and  _174
REMARK   67  A    between atoms: _177  and  _179
REMARK   68  A    between atoms: _179  and  _180
REMARK   69  A    between atoms: _182  and  _184
REMARK   70  A    between atoms: _184  and  _185
REMARK   71  A    between atoms: _184  and  _187
REMARK   72  A    between atoms: _187  and  _188
REMARK   73  A    between atoms: _190  and  _192
REMARK   74  A    between atoms: _192  and  _193
REMARK   75  A    between atoms: _196  and  _197
REMARK   76  A    between atoms: _202  and  _204
REMARK   77  A    between atoms: _204  and  _205
REMARK   78  A    between atoms: _204  and  _207
REMARK   79  A    between atoms: _207  and  _208
REMARK   80  A    between atoms: _211  and  _213
REMARK   81  A    between atoms: _213  and  _214
REMARK   82  A    between atoms: _213  and  _216
REMARK   83  A    between atoms: _216  and  _217
REMARK   84  A    between atoms: _220  and  _222
REMARK   85  A    between atoms: _222  and  _223
REMARK   86  A    between atoms: _222  and  _225
REMARK   87  A    between atoms: _225  and  _226
REMARK   88  A    between atoms: _231  and  _232
REMARK   89  A    between atoms: _234  and  _236
REMARK   90  A    between atoms: _236  and  _237
REMARK   91  A    between atoms: _236  and  _239
REMARK   92  A    between atoms: _239  and  _240
REMARK   93  A    between atoms: _240  and  _241
REMARK   94  A    between atoms: _246  and  _248
REMARK   95  A    between atoms: _248  and  _249
REMARK   96  A    between atoms: _248  and  _251
REMARK   97  A    between atoms: _251  and  _252
REMARK   98  A    between atoms: _254  and  _256
REMARK   99  A    between atoms: _256  and  _257
REMARK  100  A    between atoms: _256  and  _259
REMARK  101  A    between atoms: _259  and  _260
REMARK  102  A    between atoms: _263  and  _265
REMARK  103  A    between atoms: _265  and  _266
REMARK  104  A    between atoms: _265  and  _268
REMARK  105  A    between atoms: _268  and  _269
REMARK  106  A    between atoms: _275  and  _277
REMARK  107  A    between atoms: _277  and  _278
REMARK  108  A    between atoms: _277  and  _280
REMARK  109  A    between atoms: _280  and  _281
REMARK  110  A    between atoms: _284  and  _286
REMARK  111  A    between atoms: _286  and  _287
REMARK  112  A    between atoms: _286  and  _289
REMARK  113  A    between atoms: _289  and  _290
REMARK  114  A    between atoms: _293  and  _295
REMARK  115  A    between atoms: _295  and  _296
REMARK  116  A    between atoms: _295  and  _298
REMARK  117  A    between atoms: _298  and  _299
REMARK  118  A    between atoms: _299  and  _300
REMARK  119  A    between atoms: _300  and  _301
REMARK  120  A    between atoms: _310  and  _312
REMARK  121  A    between atoms: _312  and  _313
REMARK  122  A    between atoms: _312  and  _315
REMARK  123  A    between atoms: _315  and  _316
REMARK  124  A    between atoms: _321  and  _323
REMARK  125  A    between atoms: _323  and  _324
REMARK  126  A    between atoms: _323  and  _326
REMARK  127  A    between atoms: _326  and  _327
REMARK  128  A    between atoms: _327  and  _328
REMARK  129  A    between atoms: _328  and  _329
REMARK  130  A    between atoms: _338  and  _340
REMARK  131  A    between atoms: _340  and  _341
REMARK  132  A    between atoms: _340  and  _343
REMARK  133  A    between atoms: _343  and  _344
REMARK  134  A    between atoms: _354  and  _356
REMARK  135  A    between atoms: _356  and  _357
REMARK  136  A    between atoms: _356  and  _359
REMARK  137  A    between atoms: _359  and  _360
REMARK  138  A    between atoms: _360  and  _361
REMARK  139  A    between atoms: _361  and  _362
REMARK  140  A    between atoms: _362  and  _363
REMARK  141  A    between atoms: _367  and  _369
REMARK  142  A    between atoms: _369  and  _370
REMARK  143  A    between atoms: _369  and  _372
REMARK  144  A    between atoms: _374  and  _376
REMARK  145  A    between atoms: _376  and  _377
REMARK  146  A    between atoms: _376  and  _379
REMARK  147  A    between atoms: _379  and  _380
REMARK  148  A    between atoms: _383  and  _385
REMARK  149  A    between atoms: _385  and  _386
REMARK  150  A    between atoms: _385  and  _388
REMARK  151  A    between atoms: _391  and  _393
REMARK  152  A    between atoms: _393  and  _394
REMARK  153  A    between atoms: _393  and  _396
REMARK  154  A    between atoms: _396  and  _397
REMARK  155  A    between atoms: _402  and  _404
REMARK  156  A    between atoms: _404  and  _405
REMARK  157  A    between atoms: _404  and  _407
REMARK  158  A    between atoms: _407  and  _408
REMARK  159  A    between atoms: _412  and  _413
REMARK  160  A    between atoms: _418  and  _420
REMARK  161  A    between atoms: _420  and  _421
REMARK  162  A    between atoms: _420  and  _423
REMARK  163  A    between atoms: _423  and  _424
REMARK  164  A    between atoms: _427  and  _429
REMARK  165  A    between atoms: _429  and  _430
REMARK  166  A    between atoms: _429  and  _432
REMARK  167  A    between atoms: _432  and  _433
REMARK  168  A    between atoms: _436  and  _438
REMARK  169  A    between atoms: _438  and  _439
REMARK  170  A    between atoms: _438  and  _441
REMARK  171  A    between atoms: _441  and  _442
REMARK  172  A    between atoms: _445  and  _447
REMARK  173  A    between atoms: _447  and  _448
REMARK  174  A    between atoms: _447  and  _450
REMARK  175  A    between atoms: _450  and  _451
REMARK  176  A    between atoms: _454  and  _456
REMARK  177  A    between atoms: _456  and  _457
REMARK  178  A    between atoms: _460  and  _462
REMARK  179  A    between atoms: _462  and  _463
REMARK  180  A    between atoms: _462  and  _465
REMARK  181  A    between atoms: _465  and  _466
REMARK  182  A    between atoms: _466  and  _467
REMARK  183  A    between atoms: _469  and  _471
REMARK  184  A    between atoms: _471  and  _472
REMARK  185  A    between atoms: _471  and  _474
REMARK  186  A    between atoms: _474  and  _475
REMARK  187  A    between atoms: _475  and  _476
REMARK  188  A    between atoms: _479  and  _481
REMARK  189  A    between atoms: _481  and  _482
REMARK  190  A    between atoms: _481  and  _484
REMARK  191  A    between atoms: _486  and  _488
REMARK  192  A    between atoms: _488  and  _489
REMARK  193  A    between atoms: _492  and  _494
REMARK  194  A    between atoms: _494  and  _495
REMARK  195  A    between atoms: _494  and  _497
REMARK  196  A    between atoms: _499  and  _501
REMARK  197  A    between atoms: _501  and  _502
REMARK  198  A    between atoms: _505  and  _507
REMARK  199  A    between atoms: _507  and  _508
REMARK  200  A    between atoms: _507  and  _510
REMARK  201  A    between atoms: _510  and  _511
REMARK  202  A    between atoms: _514  and  _516
REMARK  203  A    between atoms: _516  and  _517
REMARK  204  A    between atoms: _516  and  _519
REMARK  205  A    between atoms: _519  and  _520
REMARK  206  A    between atoms: _523  and  _525
REMARK  207  A    between atoms: _525  and  _526
REMARK  208  A    between atoms: _525  and  _528
REMARK  209  A    between atoms: _528  and  _529
REMARK  210  A    between atoms: _534  and  _535
REMARK  211  A    between atoms: _537  and  _539
REMARK  212  A    between atoms: _539  and  _540
REMARK  213  A    between atoms: _539  and  _542
REMARK  214  A    between atoms: _545  and  _547
REMARK  215  A    between atoms: _547  and  _548
REMARK  216  A    between atoms: _547  and  _550
REMARK  217  A    between atoms: _550  and  _551
REMARK  218  A    between atoms: _557  and  _559
REMARK  219  A    between atoms: _559  and  _560
REMARK  220  A    between atoms: _559  and  _562
REMARK  221  A    between atoms: _562  and  _563
REMARK  222  A    between atoms: _565  and  _567
REMARK  223  A    between atoms: _567  and  _568
REMARK  224  A    between atoms: _567  and  _570
REMARK  225  A    between atoms: _572  and  _574
REMARK  226  A    between atoms: _574  and  _575
REMARK  227  A    between atoms: _574  and  _577
REMARK  228  A    between atoms: _577  and  _578
REMARK  229  A    between atoms: _583  and  _584
REMARK                            x       y       z     vdW  Elec       q    Type
REMARK                         _______ _______ _______ _____ _____    ______ ____
ROOT
ATOM      1  CB  ASN A   1      13.049  35.012  12.881  0.00  0.00    +0.110 C 
ENDROOT
BRANCH   1   2
ATOM      2  CG  ASN A   1      13.201  36.412  13.408  0.00  0.00    +0.221 C 
ATOM      3  ND2 ASN A   1      14.397  36.757  13.874  0.00  0.00    -0.329 N 
ATOM      4 HD21 ASN A   1      14.555  37.717  14.242  0.00  0.00    +0.145 HD
ATOM      5 HD22 ASN A   1      15.175  36.067  13.870  0.00  0.00    +0.145 HD
ATOM      6  OD1 ASN A   1      12.243  37.185  13.387  0.00  0.00    -0.275 OA
ENDBRANCH   1   2
BRANCH   1   7
ATOM      7  CA  ASN A   1      11.778  34.345  13.402  0.00  0.00    +0.142 C 
BRANCH   7   8
ATOM      8  N   ASN A   1      12.001  33.790  14.731  0.00  0.00    -0.239 NA
ATOM      9  H   ASN A   1      12.960  33.765  15.132  0.00  0.00    +0.142 HD
ENDBRANCH   7   8
BRANCH   7  10
ATOM     10  C   ASN A   1      11.228  33.323  12.417  0.00  0.00    +0.225 C 
ATOM     11  O   ASN A   1      10.293  33.616  11.666  0.00  0.00    -0.287 OA
ENDBRANCH   7  10
ENDBRANCH   1   7
TORSDOF 4
REMARK  Name = ../refined-set-2016/2a14/2a14_pocket.pdb
REMARK  229 active torsions:
REMARK  status: ('A' for Active; 'I' for Inactive)
REMARK    1  A    between atoms: _1  and  _5
REMARK    2  A    between atoms: _5  and  _6
REMARK    3  A    between atoms: _5  and  _8
REMARK    4  A    between atoms: _8  and  _9
REMARK    5  A    between atoms: _15  and  _17
REMARK    6  A    between atoms: _17  and  _18
REMARK    7  A    between atoms: _17  and  _20
REMARK    8  A    between atoms: _20  and  _21
REMARK    9  A    between atoms: _24  and  _26
REMARK   10  A    between atoms: _26  and  _27
REMARK   11  A    between atoms: _29  and  _31
REMARK   12  A    between atoms: _31  and  _32
REMARK   13  A    between atoms: _34  and  _36
REMARK   14  A    between atoms: _36  and  _37
REMARK   15  A    between atoms: _36  and  _39
REMARK   16  A    between atoms: _39  and  _40
REMARK   17  A    between atoms: _45  and  _46
REMARK   18  A    between atoms: _48  and  _50
REMARK   19  A    between atoms: _50  and  _51
REMARK   20  A    between atoms: _50  and  _53
REMARK   21  A    between atoms: _53  and  _54
REMARK   22  A    between atoms: _54  and  _55
REMARK   23  A    between atoms: _60  and  _62
REMARK   24  A    between atoms: _62  and  _63
REMARK   25  A    between atoms: _62  and  _65
REMARK   26  A    between atoms: _65  and  _66
REMARK   27  A    between atoms: _73  and  _74
REMARK   28  A    between atoms: _79  and  _81
REMARK   29  A    between atoms: _81  and  _82
REMARK   30  A    between atoms: _81  and  _84
REMARK   31  A    between atoms: _84  and  _85
REMARK   32  A    between atoms: _90  and  _91
REMARK   33  A    between atoms: _93  and  _95
REMARK   34  A    between atoms: _95  and  _96
REMARK   35  A    between atoms: _95  and  _98
REMARK   36  A    between atoms: _98  and  _99
REMARK   37  A    between atoms: _102  and  _104
REMARK   38  A    between atoms: _104  and  _105
REMARK   39  A    between atoms: _104  and  _107
REMARK   40  A    between atoms: _107  and  _108
REMARK   41  A    between atoms: _113  and  _114
REMARK   42  A    between atoms: _116  and  _118
REMARK   43  A    between atoms: _118  and  _119
REMARK   44  A    between atoms: _118  and  _121
REMARK   45  A    between atoms: _121  and  _122
REMARK   46  A    between atoms: _127  and  _128
REMARK   47  A    between atoms: _130  and  _132
REMARK   48  A    between atoms: _132  and  _133
REMARK   49  A    between atoms: _132  and  _135
REMARK   50  A    between atoms: _135  and  _136
REMARK   51  A    between atoms: _139  and  _141
REMARK   52  A    between atoms: _141  and  _142
REMARK   53  A    between atoms: _141  and  _144
REMARK   54  A    between atoms: _144  and  _145
REMARK   55  A    between atoms: _150  and  _152
REMARK   56  A    between atoms: _152  and  _153
REMARK   57  A    between atoms: _152  and  _155
REMARK   58  A    between atoms: _155  and  _156
REMARK   59  A    between atoms: _159  and  _161
REMARK   60  A    between atoms: _161  and  _162
REMARK   61  A    between atoms: _161  and  _164
REMARK   62  A    between atoms: _164  and  _165
REMARK   63  A    between atoms: _168  and  _170
REMARK   64  A    between atoms: _170  and  _171
REMARK   65  A    between atoms: _170  and  _173
REMARK   66  A    between atoms: _173  and  _174
REMARK   67  A    between atoms: _177  and  _179
REMARK   68  A    between atoms: _179  and  _180
REMARK   69  A    between atoms: _182  and  _184
REMARK   70  A    between atoms: _184  and  _185
REMARK   71  A    between atoms: _184  and  _187
REMARK   72  A    between atoms: _187  and  _188
REMARK   73  A    between atoms: _190  and  _192
REMARK   74  A    between atoms: _192  and  _193
REMARK   75  A    between atoms: _196  and  _197
REMARK   76  A    between atoms: _202  and  _204
REMARK   77  A    between atoms: _204  and  _205
REMARK   78  A    between atoms: _204  and  _207
REMARK   79  A    between atoms: _207  and  _208
REMARK   80  A    between atoms: _211  and  _213
REMARK   81  A    between atoms: _213  and  _214
REMARK   82  A    between atoms: _213  and  _216
REMARK   83  A    between atoms: _216  and  _217
REMARK   84  A    between atoms: _220  and  _222
REMARK   85  A    between atoms: _222  and  _223
REMARK   86  A    between atoms: _222  and  _225
REMARK   87  A    between atoms: _225  and  _226
REMARK   88  A    between atoms: _231  and  _232
REMARK   89  A    between atoms: _234  and  _236
REMARK   90  A    between atoms: _236  and  _237
REMARK   91  A    between atoms: _236  and  _239
REMARK   92  A    between atoms: _239  and  _240
REMARK   93  A    between atoms: _240  and  _241
REMARK   94  A    between atoms: _246  and  _248
REMARK   95  A    between atoms: _248  and  _249
REMARK   96  A    between atoms: _248  and  _251
REMARK   97  A    between atoms: _251  and  _252
REMARK   98  A    between atoms: _254  and  _256
REMARK   99  A    between atoms: _256  and  _257
REMARK  100  A    between atoms: _256  and  _259
REMARK  101  A    between atoms: _259  and  _260
REMARK  102  A    between atoms: _263  and  _265
REMARK  103  A    between atoms: _265  and  _266
REMARK  104  A    between atoms: _265  and  _268
REMARK  105  A    between atoms: _268  and  _269
REMARK  106  A    between atoms: _275  and  _277
REMARK  107  A    between atoms: _277  and  _278
REMARK  108  A    between atoms: _277  and  _280
REMARK  109  A    between atoms: _280  and  _281
REMARK  110  A    between atoms: _284  and  _286
REMARK  111  A    between atoms: _286  and  _287
REMARK  112  A    between atoms: _286  and  _289
REMARK  113  A    between atoms: _289  and  _290
REMARK  114  A    between atoms: _293  and  _295
REMARK  115  A    between atoms: _295  and  _296
REMARK  116  A    between atoms: _295  and  _298
REMARK  117  A    between atoms: _298  and  _299
REMARK  118  A    between atoms: _299  and  _300
REMARK  119  A    between atoms: _300  and  _301
REMARK  120  A    between atoms: _310  and  _312
REMARK  121  A    between atoms: _312  and  _313
REMARK  122  A    between atoms: _312  and  _315
REMARK  123  A    between atoms: _315  and  _316
REMARK  124  A    between atoms: _321  and  _323
REMARK  125  A    between atoms: _323  and  _324
REMARK  126  A    between atoms: _323  and  _326
REMARK  127  A    between atoms: _326  and  _327
REMARK  128  A    between atoms: _327  and  _328
REMARK  129  A    between atoms: _328  and  _329
REMARK  130  A    between atoms: _338  and  _340
REMARK  131  A    between atoms: _340  and  _341
REMARK  132  A    between atoms: _340  and  _343
REMARK  133  A    between atoms: _343  and  _344
REMARK  134  A    between atoms: _354  and  _356
REMARK  135  A    between atoms: _356  and  _357
REMARK  136  A    between atoms: _356  and  _359
REMARK  137  A    between atoms: _359  and  _360
REMARK  138  A    between atoms: _360  and  _361
REMARK  139  A    between atoms: _361  and  _362
REMARK  140  A    between atoms: _362  and  _363
REMARK  141  A    between atoms: _367  and  _369
REMARK  142  A    between atoms: _369  and  _370
REMARK  143  A    between atoms: _369  and  _372
REMARK  144  A    between atoms: _374  and  _376
REMARK  145  A    between atoms: _376  and  _377
REMARK  146  A    between atoms: _376  and  _379
REMARK  147  A    between atoms: _379  and  _380
REMARK  148  A    between atoms: _383  and  _385
REMARK  149  A    between atoms: _385  and  _386
REMARK  150  A    between atoms: _385  and  _388
REMARK  151  A    between atoms: _391  and  _393
REMARK  152  A    between atoms: _393  and  _394
REMARK  153  A    between atoms: _393  and  _396
REMARK  154  A    between atoms: _396  and  _397
REMARK  155  A    between atoms: _402  and  _404
REMARK  156  A    between atoms: _404  and  _405
REMARK  157  A    between atoms: _404  and  _407
REMARK  158  A    between atoms: _407  and  _408
REMARK  159  A    between atoms: _412  and  _413
REMARK  160  A    between atoms: _418  and  _420
REMARK  161  A    between atoms: _420  and  _421
REMARK  162  A    between atoms: _420  and  _423
REMARK  163  A    between atoms: _423  and  _424
REMARK  164  A    between atoms: _427  and  _429
REMARK  165  A    between atoms: _429  and  _430
REMARK  166  A    between atoms: _429  and  _432
REMARK  167  A    between atoms: _432  and  _433
REMARK  168  A    between atoms: _436  and  _438
REMARK  169  A    between atoms: _438  and  _439
REMARK  170  A    between atoms: _438  and  _441
REMARK  171  A    between atoms: _441  and  _442
REMARK  172  A    between atoms: _445  and  _447
REMARK  173  A    between atoms: _447  and  _448
REMARK  174  A    between atoms: _447  and  _450
REMARK  175  A    between atoms: _450  and  _451
REMARK  176  A    between atoms: _454  and  _456
REMARK  177  A    between atoms: _456  and  _457
REMARK  178  A    between atoms: _460  and  _462
REMARK  179  A    between atoms: _462  and  _463
REMARK  180  A    between atoms: _462  and  _465
REMARK  181  A    between atoms: _465  and  _466
REMARK  182  A    between atoms: _466  and  _467
REMARK  183  A    between atoms: _469  and  _471
REMARK  184  A    between atoms: _471  and  _472
REMARK  185  A    between atoms: _471  and  _474
REMARK  186  A    between atoms: _474  and  _475
REMARK  187  A    between atoms: _475  and  _476
REMARK  188  A    between atoms: _479  and  _481
REMARK  189  A    between atoms: _481  and  _482
REMARK  190  A    between atoms: _481  and  _484
REMARK  191  A    between atoms: _486  and  _488
REMARK  192  A    between atoms: _488  and  _489
REMARK  193  A    between atoms: _492  and  _494
REMARK  194  A    between atoms: _494  and  _495
REMARK  195  A    between atoms: _494  and  _497
REMARK  196  A    between atoms: _499  and  _501
REMARK  197  A    between atoms: _501  and  _502
REMARK  198  A    between atoms: _505  and  _507
REMARK  199  A    between atoms: _507  and  _508
REMARK  200  A    between atoms: _507  and  _510
REMARK  201  A    between atoms: _510  and  _511
REMARK  202  A    between atoms: _514  and  _516
REMARK  203  A    between atoms: _516  and  _517
REMARK  204  A    between atoms: _516  and  _519
REMARK  205  A    between atoms: _519  and  _520
REMARK  206  A    between atoms: _523  and  _525
REMARK  207  A    between atoms: _525  and  _526
REMARK  208  A    between atoms: _525  and  _528
REMARK  209  A    between atoms: _528  and  _529
REMARK  210  A    between atoms: _534  and  _535
REMARK  211  A    between atoms: _537  and  _539
REMARK  212  A    between atoms: _539  and  _540
REMARK  213  A    between atoms: _539  and  _542
REMARK  214  A    between atoms: _545  and  _547
REMARK  215  A    between atoms: _547  and  _548
REMARK  216  A    between atoms: _547  and  _550
REMARK  217  A    between atoms: _550  and  _551
REMARK  218  A    between atoms: _557  and  _559
REMARK  219  A    between atoms: _559  and  _560
REMARK  220  A    between atoms: _559  and  _562
REMARK  221  A    between atoms: _562  and  _563
REMARK  222  A    between atoms: _565  and  _567
REMARK  223  A    between atoms: _567  and  _568
REMARK  224  A    between atoms: _567  and  _570
REMARK  225  A    between atoms: _572  and  _574
REMARK  226  A    between atoms: _574  and  _575
REMARK  227  A    between atoms: _574  and  _577
REMARK  228  A    between atoms: _577  and  _578
REMARK  229  A    between atoms: _583  and  _584
REMARK                            x       y       z     vdW  Elec       q    Type
REMARK                         _______ _______ _______ _____ _____    ______ ____
ROOT
ATOM      1  CA  LEU A   1       7.690  33.638   9.082  0.00  0.00    +0.133 C 
ENDROOT
BRANCH   1   2
ATOM      2  N   LEU A   1       7.707  33.652  10.540  0.00  0.00    -0.239 NA
ATOM      3  H   LEU A   1       8.579  33.393  11.044  0.00  0.00    +0.142 HD
ENDBRANCH   1   2
BRANCH   1   4
ATOM      4  C   LEU A   1       6.799  32.528   8.536  0.00  0.00    +0.224 C 
ATOM      5  O   LEU A   1       6.136  32.722   7.526  0.00  0.00    -0.287 OA
ENDBRANCH   1   4
BRANCH   1   6
ATOM      6  CB  LEU A   1       9.111  33.527   8.514  0.00  0.00    +0.025 C 
BRANCH   6   7
ATOM      7  CG  LEU A   1       9.947  34.777   8.818  0.00  0.00    +0.002 C 
ATOM      8  CD2 LEU A   1      11.424  34.480   8.615  0.00  0.00    +0.000 C 
ATOM      9  CD1 LEU A   1       9.500  35.982   7.972  0.00  0.00    +0.000 C 
ENDBRANCH   6   7
ENDBRANCH   1   6
TORSDOF 4
REMARK  Name = ../refined-set-2016/2a14/2a14_pocket.pdb
REMARK  229 active torsions:
REMARK  status: ('A' for Active; 'I' for Inactive)
REMARK    1  A    between atoms: _1  and  _5
REMARK    2  A    between atoms: _5  and  _6
REMARK    3  A    between atoms: _5  and  _8
REMARK    4  A    between atoms: _8  and  _9
REMARK    5  A    between atoms: _15  and  _17
REMARK    6  A    between atoms: _17  and  _18
REMARK    7  A    between atoms: _17  and  _20
REMARK    8  A    between atoms: _20  and  _21
REMARK    9  A    between atoms: _24  and  _26
REMARK   10  A    between atoms: _26  and  _27
REMARK   11  A    between atoms: _29  and  _31
REMARK   12  A    between atoms: _31  and  _32
REMARK   13  A    between atoms: _34  and  _36
REMARK   14  A    between atoms: _36  and  _37
REMARK   15  A    between atoms: _36  and  _39
REMARK   16  A    between atoms: _39  and  _40
REMARK   17  A    between atoms: _45  and  _46
REMARK   18  A    between atoms: _48  and  _50
REMARK   19  A    between atoms: _50  and  _51
REMARK   20  A    between atoms: _50  and  _53
REMARK   21  A    between atoms: _53  and  _54
REMARK   22  A    between atoms: _54  and  _55
REMARK   23  A    between atoms: _60  and  _62
REMARK   24  A    between atoms: _62  and  _63
REMARK   25  A    between atoms: _62  and  _65
REMARK   26  A    between atoms: _65  and  _66
REMARK   27  A    between atoms: _73  and  _74
REMARK   28  A    between atoms: _79  and  _81
REMARK   29  A    between atoms: _81  and  _82
REMARK   30  A    between atoms: _81  and  _84
REMARK   31  A    between atoms: _84  and  _85
REMARK   32  A    between atoms: _90  and  _91
REMARK   33  A    between atoms: _93  and  _95
REMARK   34  A    between atoms: _95  and  _96
REMARK   35  A    between atoms: _95  and  _98
REMARK   36  A    between atoms: _98  and  _99
REMARK   37  A    between atoms: _102  and  _104
REMARK   38  A    between atoms: _104  and  _105
REMARK   39  A    between atoms: _104  and  _107
REMARK   40  A    between atoms: _107  and  _108
REMARK   41  A    between atoms: _113  and  _114
REMARK   42  A    between atoms: _116  and  _118
REMARK   43  A    between atoms: _118  and  _119
REMARK   44  A    between atoms: _118  and  _121
REMARK   45  A    between atoms: _121  and  _122
REMARK   46  A    between atoms: _127  and  _128
REMARK   47  A    between atoms: _130  and  _132
REMARK   48  A    between atoms: _132  and  _133
REMARK   49  A    between atoms: _132  and  _135
REMARK   50  A    between atoms: _135  and  _136
REMARK   51  A    between atoms: _139  and  _141
REMARK   52  A    between atoms: _141  and  _142
REMARK   53  A    between atoms: _141  and  _144
REMARK   54  A    between atoms: _144  and  _145
REMARK   55  A    between atoms: _150  and  _152
REMARK   56  A    between atoms: _152  and  _153
REMARK   57  A    between atoms: _152  and  _155
REMARK   58  A    between atoms: _155  and  _156
REMARK   59  A    between atoms: _159  and  _161
REMARK   60  A    between atoms: _161  and  _162
REMARK   61  A    between atoms: _161  and  _164
REMARK   62  A    between atoms: _164  and  _165
REMARK   63  A    between atoms: _168  and  _170
REMARK   64  A    between atoms: _170  and  _171
REMARK   65  A    between atoms: _170  and  _173
REMARK   66  A    between atoms: _173  and  _174
REMARK   67  A    between atoms: _177  and  _179
REMARK   68  A    between atoms: _179  and  _180
REMARK   69  A    between atoms: _182  and  _184
REMARK   70  A    between atoms: _184  and  _185
REMARK   71  A    between atoms: _184  and  _187
REMARK   72  A    between atoms: _187  and  _188
REMARK   73  A    between atoms: _190  and  _192
REMARK   74  A    between atoms: _192  and  _193
REMARK   75  A    between atoms: _196  and  _197
REMARK   76  A    between atoms: _202  and  _204
REMARK   77  A    between atoms: _204  and  _205
REMARK   78  A    between atoms: _204  and  _207
REMARK   79  A    between atoms: _207  and  _208
REMARK   80  A    between atoms: _211  and  _213
REMARK   81  A    between atoms: _213  and  _214
REMARK   82  A    between atoms: _213  and  _216
REMARK   83  A    between atoms: _216  and  _217
REMARK   84  A    between atoms: _220  and  _222
REMARK   85  A    between atoms: _222  and  _223
REMARK   86  A    between atoms: _222  and  _225
REMARK   87  A    between atoms: _225  and  _226
REMARK   88  A    between atoms: _231  and  _232
REMARK   89  A    between atoms: _234  and  _236
REMARK   90  A    between atoms: _236  and  _237
REMARK   91  A    between atoms: _236  and  _239
REMARK   92  A    between atoms: _239  and  _240
REMARK   93  A    between atoms: _240  and  _241
REMARK   94  A    between atoms: _246  and  _248
REMARK   95  A    between atoms: _248  and  _249
REMARK   96  A    between atoms: _248  and  _251
REMARK   97  A    between atoms: _251  and  _252
REMARK   98  A    between atoms: _254  and  _256
REMARK   99  A    between atoms: _256  and  _257
REMARK  100  A    between atoms: _256  and  _259
REMARK  101  A    between atoms: _259  and  _260
REMARK  102  A    between atoms: _263  and  _265
REMARK  103  A    between atoms: _265  and  _266
REMARK  104  A    between atoms: _265  and  _268
REMARK  105  A    between atoms: _268  and  _269
REMARK  106  A    between atoms: _275  and  _277
REMARK  107  A    between atoms: _277  and  _278
REMARK  108  A    between atoms: _277  and  _280
REMARK  109  A    between atoms: _280  and  _281
REMARK  110  A    between atoms: _284  and  _286
REMARK  111  A    between atoms: _286  and  _287
REMARK  112  A    between atoms: _286  and  _289
REMARK  113  A    between atoms: _289  and  _290
REMARK  114  A    between atoms: _293  and  _295
REMARK  115  A    between atoms: _295  and  _296
REMARK  116  A    between atoms: _295  and  _298
REMARK  117  A    between atoms: _298  and  _299
REMARK  118  A    between atoms: _299  and  _300
REMARK  119  A    between atoms: _300  and  _301
REMARK  120  A    between atoms: _310  and  _312
REMARK  121  A    between atoms: _312  and  _313
REMARK  122  A    between atoms: _312  and  _315
REMARK  123  A    between atoms: _315  and  _316
REMARK  124  A    between atoms: _321  and  _323
REMARK  125  A    between atoms: _323  and  _324
REMARK  126  A    between atoms: _323  and  _326
REMARK  127  A    between atoms: _326  and  _327
REMARK  128  A    between atoms: _327  and  _328
REMARK  129  A    between atoms: _328  and  _329
REMARK  130  A    between atoms: _338  and  _340
REMARK  131  A    between atoms: _340  and  _341
REMARK  132  A    between atoms: _340  and  _343
REMARK  133  A    between atoms: _343  and  _344
REMARK  134  A    between atoms: _354  and  _356
REMARK  135  A    between atoms: _356  and  _357
REMARK  136  A    between atoms: _356  and  _359
REMARK  137  A    between atoms: _359  and  _360
REMARK  138  A    between atoms: _360  and  _361
REMARK  139  A    between atoms: _361  and  _362
REMARK  140  A    between atoms: _362  and  _363
REMARK  141  A    between atoms: _367  and  _369
REMARK  142  A    between atoms: _369  and  _370
REMARK  143  A    between atoms: _369  and  _372
REMARK  144  A    between atoms: _374  and  _376
REMARK  145  A    between atoms: _376  and  _377
REMARK  146  A    between atoms: _376  and  _379
REMARK  147  A    between atoms: _379  and  _380
REMARK  148  A    between atoms: _383  and  _385
REMARK  149  A    between atoms: _385  and  _386
REMARK  150  A    between atoms: _385  and  _388
REMARK  151  A    between atoms: _391  and  _393
REMARK  152  A    between atoms: _393  and  _394
REMARK  153  A    between atoms: _393  and  _396
REMARK  154  A    between atoms: _396  and  _397
REMARK  155  A    between atoms: _402  and  _404
REMARK  156  A    between atoms: _404  and  _405
REMARK  157  A    between atoms: _404  and  _407
REMARK  158  A    between atoms: _407  and  _408
REMARK  159  A    between atoms: _412  and  _413
REMARK  160  A    between atoms: _418  and  _420
REMARK  161  A    between atoms: _420  and  _421
REMARK  162  A    between atoms: _420  and  _423
REMARK  163  A    between atoms: _423  and  _424
REMARK  164  A    between atoms: _427  and  _429
REMARK  165  A    between atoms: _429  and  _430
REMARK  166  A    between atoms: _429  and  _432
REMARK  167  A    between atoms: _432  and  _433
REMARK  168  A    between atoms: _436  and  _438
REMARK  169  A    between atoms: _438  and  _439
REMARK  170  A    between atoms: _438  and  _441
REMARK  171  A    between atoms: _441  and  _442
REMARK  172  A    between atoms: _445  and  _447
REMARK  173  A    between atoms: _447  and  _448
REMARK  174  A    between atoms: _447  and  _450
REMARK  175  A    between atoms: _450  and  _451
REMARK  176  A    between atoms: _454  and  _456
REMARK  177  A    between atoms: _456  and  _457
REMARK  178  A    between atoms: _460  and  _462
REMARK  179  A    between atoms: _462  and  _463
REMARK  180  A    between atoms: _462  and  _465
REMARK  181  A    between atoms: _465  and  _466
REMARK  182  A    between atoms: _466  and  _467
REMARK  183  A    between atoms: _469  and  _471
REMARK  184  A    between atoms: _471  and  _472
REMARK  185  A    between atoms: _471  and  _474
REMARK  186  A    between atoms: _474  and  _475
REMARK  187  A    between atoms: _475  and  _476
REMARK  188  A    between atoms: _479  and  _481
REMARK  189  A    between atoms: _481  and  _482
REMARK  190  A    between atoms: _481  and  _484
REMARK  191  A    between atoms: _486  and  _488
REMARK  192  A    between atoms: _488  and  _489
REMARK  193  A    between atoms: _492  and  _494
REMARK  194  A    between atoms: _494  and  _495
REMARK  195  A    between atoms: _494  and  _497
REMARK  196  A    between atoms: _499  and  _501
REMARK  197  A    between atoms: _501  and  _502
REMARK  198  A    between atoms: _505  and  _507
REMARK  199  A    between atoms: _507  and  _508
REMARK  200  A    between atoms: _507  and  _510
REMARK  201  A    between atoms: _510  and  _511
REMARK  202  A    between atoms: _514  and  _516
REMARK  203  A    between atoms: _516  and  _517
REMARK  204  A    between atoms: _516  and  _519
REMARK  205  A    between atoms: _519  and  _520
REMARK  206  A    between atoms: _523  and  _525
REMARK  207  A    between atoms: _525  and  _526
REMARK  208  A    between atoms: _525  and  _528
REMARK  209  A    between atoms: _528  and  _529
REMARK  210  A    between atoms: _534  and  _535
REMARK  211  A    between atoms: _537  and  _539
REMARK  212  A    between atoms: _539  and  _540
REMARK  213  A    between atoms: _539  and  _542
REMARK  214  A    between atoms: _545  and  _547
REMARK  215  A    between atoms: _547  and  _548
REMARK  216  A    between atoms: _547  and  _550
REMARK  217  A    between atoms: _550  and  _551
REMARK  218  A    between atoms: _557  and  _559
REMARK  219  A    between atoms: _559  and  _560
REMARK  220  A    between atoms: _559  and  _562
REMARK  221  A    between atoms: _562  and  _563
REMARK  222  A    between atoms: _565  and  _567
REMARK  223  A    between atoms: _567  and  _568
REMARK  224  A    between atoms: _567  and  _570
REMARK  225  A    between atoms: _572  and  _574
REMARK  226  A    between atoms: _574  and  _575
REMARK  227  A    between atoms: _574  and  _577
REMARK  228  A    between atoms: _577  and  _578
REMARK  229  A    between atoms: _583  and  _584
REMARK                            x       y       z     vdW  Elec       q    Type
REMARK                         _______ _______ _______ _____ _____    ______ ____
ROOT
ATOM      1  C   PRO A   6      23.560  35.911   4.524  0.00  0.00    +0.241 C 
ATOM      2  N   THR A   7      22.307  36.196   4.901  0.00  0.00    -0.295 N 
ATOM      3  H   THR A   7      21.966  37.177   4.852  0.00  0.00    +0.150 HD
ATOM      4  O   PRO A   6      23.970  34.751   4.378  0.00  0.00    -0.273 OA
ENDROOT
BRANCH   1  10
ATOM      5  C   GLY A   5      23.298  39.216   4.274  0.00  0.00    +0.246 C 
ATOM      6  N   PRO A   6      24.097  38.334   4.897  0.00  0.00    -0.272 N 
ATOM      7  CD  PRO A   6      24.722  38.488   6.228  0.00  0.00    +0.094 C 
ATOM      8  CG  PRO A   6      25.705  37.302   6.297  0.00  0.00    +0.024 C 
ATOM      9  CB  PRO A   6      25.877  36.837   4.885  0.00  0.00    +0.031 C 
ATOM     10  CA  PRO A   6      24.504  37.096   4.251  0.00  0.00    +0.152 C 
ATOM     11  O   GLY A   5      22.956  39.089   3.096  0.00  0.00    -0.273 OA
BRANCH   5  12
ATOM     12  CA  GLY A   5      22.832  40.417   5.077  0.00  0.00    +0.176 C 
BRANCH  12  15
ATOM     13  C   SER A   4      20.491  40.043   4.501  0.00  0.00    +0.243 C 
ATOM     14  O   SER A   4      20.494  38.916   5.001  0.00  0.00    -0.273 OA
ATOM     15  N   GLY A   5      21.543  40.862   4.553  0.00  0.00    -0.295 N 
ATOM     16  H   GLY A   5      21.443  41.840   4.213  0.00  0.00    +0.150 HD
BRANCH  13  17
ATOM     17  CA  SER A   4      19.268  40.538   3.714  0.00  0.00    +0.178 C 
BRANCH  17  20
ATOM     18  C   GLY A   3      19.140  42.801   4.671  0.00  0.00    +0.243 C 
ATOM     19  O   GLY A   3      19.213  42.405   5.842  0.00  0.00    -0.273 OA
ATOM     20  N   SER A   4      19.164  41.993   3.618  0.00  0.00    -0.295 N 
ATOM     21  H   SER A   4      19.106  42.419   2.671  0.00  0.00    +0.150 HD
BRANCH  18  22
ATOM     22  CA  GLY A   3      19.007  44.285   4.344  0.00  0.00    +0.176 C 
BRANCH  22  25
ATOM     23  C   ILE A   2      16.706  44.318   3.520  0.00  0.00    +0.241 C 
ATOM     24  O   ILE A   2      16.251  43.965   4.620  0.00  0.00    -0.273 OA
ATOM     25  N   GLY A   3      18.008  44.512   3.291  0.00  0.00    -0.295 N 
ATOM     26  H   GLY A   3      18.320  44.829   2.351  0.00  0.00    +0.150 HD
BRANCH  23  27
ATOM     27  CA  ILE A   2      15.776  44.551   2.335  0.00  0.00    +0.148 C 
BRANCH  27  29
ATOM     28  C   ASP A   1      14.993  42.561   1.134  0.00  0.00    +0.239 C 
ATOM     29  N   ILE A   2      14.920  43.382   2.179  0.00  0.00    -0.297 N 
ATOM     30  H   ILE A   2      14.219  43.180   2.920  0.00  0.00    +0.150 HD
ATOM     31  O   ASP A   1      15.836  42.665   0.236  0.00  0.00    -0.274 OA
BRANCH  28  32
ATOM     32  CA  ASP A   1      13.947  41.445   1.101  0.00  0.00    +0.156 C 
BRANCH  32  33
ATOM     33  N   ASP A   1      13.313  41.468  -0.218  0.00  0.00    -0.238 NA
ATOM     34  H   ASP A   1      13.732  40.912  -0.991  0.00  0.00    +0.142 HD
ENDBRANCH  32  33
BRANCH  32  35
ATOM     35  CB  ASP A   1      14.583  40.071   1.366  0.00  0.00    +0.140 C 
BRANCH  35  36
ATOM     36  CG  ASP A   1      15.134  39.922   2.778  0.00  0.00    +0.367 C 
ATOM     37  OD2 ASP A   1      14.491  40.374   3.757  0.00  0.00    -0.246 OA
ATOM     38  OD1 ASP A   1      16.214  39.304   2.903  0.00  0.00    -0.246 OA
ENDBRANCH  35  36
ENDBRANCH  32  35
ENDBRANCH  28  32
ENDBRANCH  27  29
BRANCH  27  39
ATOM     39  CB  ILE A   2      14.919  45.835   2.567  0.00  0.00    +0.027 C 
ATOM     40  CG2 ILE A   2      15.799  47.043   2.986  0.00  0.00    +0.002 C 
BRANCH  39  41
ATOM     41  CG1 ILE A   2      14.066  46.153   1.321  0.00  0.00    +0.002 C 
ATOM     42  CD1 ILE A   2      14.847  46.737   0.140  0.00  0.00    +0.000 C 
ENDBRANCH  39  41
ENDBRANCH  27  39
ENDBRANCH  23  27
ENDBRANCH  22  25
ENDBRANCH  18  22
ENDBRANCH  17  20
BRANCH  17  43
ATOM     43  CB  SER A   4      19.311  39.913   2.301  0.00  0.00    +0.166 C 
BRANCH  43  44
ATOM     44  OG  SER A   4      18.202  40.305   1.500  0.00  0.00    -0.380 OA
ATOM     45  H   SER A   4      17.362  40.016   1.937  0.00  0.00    +0.211 HD
ENDBRANCH  43  44
ENDBRANCH  17  43
ENDBRANCH  13  17
ENDBRANCH  12  15
ENDBRANCH   5  12
ENDBRANCH   1  10
BRANCH   2  46
ATOM     46  CA  THR A   7      21.411  35.142   5.382  0.00  0.00    +0.176 C 
BRANCH  46  47
ATOM     47  C   THR A   7      20.262  34.863   4.405  0.00  0.00    +0.243 C 
ATOM     48  N   ILE A   8      19.802  33.616   4.405  0.00  0.00    -0.297 N 
ATOM     49  H   ILE A   8      20.242  32.913   5.033  0.00  0.00    +0.150 HD
ATOM     50  O   THR A   7      19.811  35.761   3.675  0.00  0.00    -0.273 OA
BRANCH  48  51
ATOM     51  CA  ILE A   8      18.687  33.205   3.540  0.00  0.00    +0.149 C 
BRANCH  51  52
ATOM     52  C   ILE A   8      17.500  32.612   4.311  0.00  0.00    +0.241 C 
ATOM     53  N   TYR A   9      17.642  32.464   5.636  0.00  0.00    -0.297 N 
ATOM     54  H   TYR A   9      18.502  32.821   6.099  0.00  0.00    +0.150 HD
ATOM     55  O   ILE A   8      16.466  32.301   3.698  0.00  0.00    -0.273 OA
BRANCH  53  56
ATOM     56  CA  TYR A   9      16.601  31.804   6.453  0.00  0.00    +0.153 C 
BRANCH  56  57
ATOM     57  C   TYR A   9      15.275  32.566   6.350  0.00  0.00    +0.241 C 
ATOM     58  O   TYR A   9      14.196  31.963   6.426  0.00  0.00    -0.273 OA
ATOM     59  N   GLN A  10      15.368  33.886   6.165  0.00  0.00    -0.298 N 
ATOM     60  H   GLN A  10      16.300  34.307   5.977  0.00  0.00    +0.150 HD
BRANCH  59  61
ATOM     61  CA  GLN A  10      14.185  34.759   6.221  0.00  0.00    +0.137 C 
BRANCH  61  62
ATOM     62  C   GLN A  10      13.203  34.572   5.062  0.00  0.00    +0.227 C 
ATOM     63  O   GLN A  10      12.085  35.095   5.122  0.00  0.00    -0.286 OA
ENDBRANCH  61  62
BRANCH  61  64
ATOM     64  CB  GLN A  10      14.584  36.242   6.341  0.00  0.00    +0.037 C 
BRANCH  64  65
ATOM     65  CG  GLN A  10      15.358  36.815   5.135  0.00  0.00    +0.087 C 
BRANCH  65  66
ATOM     66  CD  GLN A  10      16.874  36.708   5.289  0.00  0.00    +0.219 C 
ATOM     67  OE1 GLN A  10      17.397  35.747   5.863  0.00  0.00    -0.275 OA
ATOM     68  NE2 GLN A  10      17.590  37.701   4.755  0.00  0.00    -0.329 N 
ATOM     69 HE21 GLN A  10      18.628  37.683   4.814  0.00  0.00    +0.145 HD
ATOM     70 HE22 GLN A  10      17.109  38.492   4.280  0.00  0.00    +0.145 HD
ENDBRANCH  65  66
ENDBRANCH  64  65
ENDBRANCH  61  64
ENDBRANCH  59  61
ENDBRANCH  56  57
BRANCH  56  71
ATOM     71  CB  TYR A   9      17.016  31.666   7.936  0.00  0.00    +0.055 C 
BRANCH  71  72
ATOM     72  CG  TYR A   9      16.966  32.985   8.679  0.00  0.00    -0.020 A 
ATOM     73  CD2 TYR A   9      15.784  33.414   9.298  0.00  0.00    -0.001 A 
ATOM     74  CE2 TYR A   9      15.713  34.657   9.939  0.00  0.00    +0.036 A 
ATOM     75  CZ  TYR A   9      16.834  35.482   9.954  0.00  0.00    +0.134 A 
ATOM     76  CE1 TYR A   9      18.021  35.079   9.337  0.00  0.00    +0.036 A 
ATOM     77  CD1 TYR A   9      18.074  33.842   8.695  0.00  0.00    -0.001 A 
BRANCH  75  78
ATOM     78  OH  TYR A   9      16.752  36.704  10.588  0.00  0.00    -0.506 OA
ATOM     79  HH  TYR A   9      16.934  37.426   9.935  0.00  0.00    +0.292 HD
ENDBRANCH  75  78
ENDBRANCH  71  72
ENDBRANCH  56  71
ENDBRANCH  53  56
ENDBRANCH  51  52
BRANCH  51  80
ATOM     80  CB  ILE A   8      19.144  32.274   2.353  0.00  0.00    +0.027 C 
ATOM     81  CG2 ILE A   8      20.114  33.037   1.435  0.00  0.00    +0.002 C 
BRANCH  80  82
ATOM     82  CG1 ILE A   8      19.780  30.970   2.855  0.00  0.00    +0.002 C 
ATOM     83  CD1 ILE A   8      18.798  29.932   3.413  0.00  0.00    +0.000 C 
ENDBRANCH  80  82
ENDBRANCH  51  80
ENDBRANCH  48  51
ENDBRANCH  46  47
BRANCH  46  84
ATOM     84  CB  THR A   7      20.830  35.448   6.808  0.00  0.00    +0.137 C 
ATOM     85  CG2 THR A   7      21.943  35.855   7.804  0.00  0.00    +0.034 C 
BRANCH  84  86
ATOM     86  OG1 THR A   7      19.874  36.509   6.735  0.00  0.00    -0.382 OA
ATOM     87  HG1 THR A   7      19.134  36.244   6.133  0.00  0.00    +0.210 HD
ENDBRANCH  84  86
ENDBRANCH  46  84
ENDBRANCH   2  46
TORSDOF 35
REMARK  Name = ../refined-set-2016/2a14/2a14_pocket.pdb
REMARK  229 active torsions:
REMARK  status: ('A' for Active; 'I' for Inactive)
REMARK    1  A    between atoms: _1  and  _5
REMARK    2  A    between atoms: _5  and  _6
REMARK    3  A    between atoms: _5  and  _8
REMARK    4  A    between atoms: _8  and  _9
REMARK    5  A    between atoms: _15  and  _17
REMARK    6  A    between atoms: _17  and  _18
REMARK    7  A    between atoms: _17  and  _20
REMARK    8  A    between atoms: _20  and  _21
REMARK    9  A    between atoms: _24  and  _26
REMARK   10  A    between atoms: _26  and  _27
REMARK   11  A    between atoms: _29  and  _31
REMARK   12  A    between atoms: _31  and  _32
REMARK   13  A    between atoms: _34  and  _36
REMARK   14  A    between atoms: _36  and  _37
REMARK   15  A    between atoms: _36  and  _39
REMARK   16  A    between atoms: _39  and  _40
REMARK   17  A    between atoms: _45  and  _46
REMARK   18  A    between atoms: _48  and  _50
REMARK   19  A    between atoms: _50  and  _51
REMARK   20  A    between atoms: _50  and  _53
REMARK   21  A    between atoms: _53  and  _54
REMARK   22  A    between atoms: _54  and  _55
REMARK   23  A    between atoms: _60  and  _62
REMARK   24  A    between atoms: _62  and  _63
REMARK   25  A    between atoms: _62  and  _65
REMARK   26  A    between atoms: _65  and  _66
REMARK   27  A    between atoms: _73  and  _74
REMARK   28  A    between atoms: _79  and  _81
REMARK   29  A    between atoms: _81  and  _82
REMARK   30  A    between atoms: _81  and  _84
REMARK   31  A    between atoms: _84  and  _85
REMARK   32  A    between atoms: _90  and  _91
REMARK   33  A    between atoms: _93  and  _95
REMARK   34  A    between atoms: _95  and  _96
REMARK   35  A    between atoms: _95  and  _98
REMARK   36  A    between atoms: _98  and  _99
REMARK   37  A    between atoms: _102  and  _104
REMARK   38  A    between atoms: _104  and  _105
REMARK   39  A    between atoms: _104  and  _107
REMARK   40  A    between atoms: _107  and  _108
REMARK   41  A    between atoms: _113  and  _114
REMARK   42  A    between atoms: _116  and  _118
REMARK   43  A    between atoms: _118  and  _119
REMARK   44  A    between atoms: _118  and  _121
REMARK   45  A    between atoms: _121  and  _122
REMARK   46  A    between atoms: _127  and  _128
REMARK   47  A    between atoms: _130  and  _132
REMARK   48  A    between atoms: _132  and  _133
REMARK   49  A    between atoms: _132  and  _135
REMARK   50  A    between atoms: _135  and  _136
REMARK   51  A    between atoms: _139  and  _141
REMARK   52  A    between atoms: _141  and  _142
REMARK   53  A    between atoms: _141  and  _144
REMARK   54  A    between atoms: _144  and  _145
REMARK   55  A    between atoms: _150  and  _152
REMARK   56  A    between atoms: _152  and  _153
REMARK   57  A    between atoms: _152  and  _155
REMARK   58  A    between atoms: _155  and  _156
REMARK   59  A    between atoms: _159  and  _161
REMARK   60  A    between atoms: _161  and  _162
REMARK   61  A    between atoms: _161  and  _164
REMARK   62  A    between atoms: _164  and  _165
REMARK   63  A    between atoms: _168  and  _170
REMARK   64  A    between atoms: _170  and  _171
REMARK   65  A    between atoms: _170  and  _173
REMARK   66  A    between atoms: _173  and  _174
REMARK   67  A    between atoms: _177  and  _179
REMARK   68  A    between atoms: _179  and  _180
REMARK   69  A    between atoms: _182  and  _184
REMARK   70  A    between atoms: _184  and  _185
REMARK   71  A    between atoms: _184  and  _187
REMARK   72  A    between atoms: _187  and  _188
REMARK   73  A    between atoms: _190  and  _192
REMARK   74  A    between atoms: _192  and  _193
REMARK   75  A    between atoms: _196  and  _197
REMARK   76  A    between atoms: _202  and  _204
REMARK   77  A    between atoms: _204  and  _205
REMARK   78  A    between atoms: _204  and  _207
REMARK   79  A    between atoms: _207  and  _208
REMARK   80  A    between atoms: _211  and  _213
REMARK   81  A    between atoms: _213  and  _214
REMARK   82  A    between atoms: _213  and  _216
REMARK   83  A    between atoms: _216  and  _217
REMARK   84  A    between atoms: _220  and  _222
REMARK   85  A    between atoms: _222  and  _223
REMARK   86  A    between atoms: _222  and  _225
REMARK   87  A    between atoms: _225  and  _226
REMARK   88  A    between atoms: _231  and  _232
REMARK   89  A    between atoms: _234  and  _236
REMARK   90  A    between atoms: _236  and  _237
REMARK   91  A    between atoms: _236  and  _239
REMARK   92  A    between atoms: _239  and  _240
REMARK   93  A    between atoms: _240  and  _241
REMARK   94  A    between atoms: _246  and  _248
REMARK   95  A    between atoms: _248  and  _249
REMARK   96  A    between atoms: _248  and  _251
REMARK   97  A    between atoms: _251  and  _252
REMARK   98  A    between atoms: _254  and  _256
REMARK   99  A    between atoms: _256  and  _257
REMARK  100  A    between atoms: _256  and  _259
REMARK  101  A    between atoms: _259  and  _260
REMARK  102  A    between atoms: _263  and  _265
REMARK  103  A    between atoms: _265  and  _266
REMARK  104  A    between atoms: _265  and  _268
REMARK  105  A    between atoms: _268  and  _269
REMARK  106  A    between atoms: _275  and  _277
REMARK  107  A    between atoms: _277  and  _278
REMARK  108  A    between atoms: _277  and  _280
REMARK  109  A    between atoms: _280  and  _281
REMARK  110  A    between atoms: _284  and  _286
REMARK  111  A    between atoms: _286  and  _287
REMARK  112  A    between atoms: _286  and  _289
REMARK  113  A    between atoms: _289  and  _290
REMARK  114  A    between atoms: _293  and  _295
REMARK  115  A    between atoms: _295  and  _296
REMARK  116  A    between atoms: _295  and  _298
REMARK  117  A    between atoms: _298  and  _299
REMARK  118  A    between atoms: _299  and  _300
REMARK  119  A    between atoms: _300  and  _301
REMARK  120  A    between atoms: _310  and  _312
REMARK  121  A    between atoms: _312  and  _313
REMARK  122  A    between atoms: _312  and  _315
REMARK  123  A    between atoms: _315  and  _316
REMARK  124  A    between atoms: _321  and  _323
REMARK  125  A    between atoms: _323  and  _324
REMARK  126  A    between atoms: _323  and  _326
REMARK  127  A    between atoms: _326  and  _327
REMARK  128  A    between atoms: _327  and  _328
REMARK  129  A    between atoms: _328  and  _329
REMARK  130  A    between atoms: _338  and  _340
REMARK  131  A    between atoms: _340  and  _341
REMARK  132  A    between atoms: _340  and  _343
REMARK  133  A    between atoms: _343  and  _344
REMARK  134  A    between atoms: _354  and  _356
REMARK  135  A    between atoms: _356  and  _357
REMARK  136  A    between atoms: _356  and  _359
REMARK  137  A    between atoms: _359  and  _360
REMARK  138  A    between atoms: _360  and  _361
REMARK  139  A    between atoms: _361  and  _362
REMARK  140  A    between atoms: _362  and  _363
REMARK  141  A    between atoms: _367  and  _369
REMARK  142  A    between atoms: _369  and  _370
REMARK  143  A    between atoms: _369  and  _372
REMARK  144  A    between atoms: _374  and  _376
REMARK  145  A    between atoms: _376  and  _377
REMARK  146  A    between atoms: _376  and  _379
REMARK  147  A    between atoms: _379  and  _380
REMARK  148  A    between atoms: _383  and  _385
REMARK  149  A    between atoms: _385  and  _386
REMARK  150  A    between atoms: _385  and  _388
REMARK  151  A    between atoms: _391  and  _393
REMARK  152  A    between atoms: _393  and  _394
REMARK  153  A    between atoms: _393  and  _396
REMARK  154  A    between atoms: _396  and  _397
REMARK  155  A    between atoms: _402  and  _404
REMARK  156  A    between atoms: _404  and  _405
REMARK  157  A    between atoms: _404  and  _407
REMARK  158  A    between atoms: _407  and  _408
REMARK  159  A    between atoms: _412  and  _413
REMARK  160  A    between atoms: _418  and  _420
REMARK  161  A    between atoms: _420  and  _421
REMARK  162  A    between atoms: _420  and  _423
REMARK  163  A    between atoms: _423  and  _424
REMARK  164  A    between atoms: _427  and  _429
REMARK  165  A    between atoms: _429  and  _430
REMARK  166  A    between atoms: _429  and  _432
REMARK  167  A    between atoms: _432  and  _433
REMARK  168  A    between atoms: _436  and  _438
REMARK  169  A    between atoms: _438  and  _439
REMARK  170  A    between atoms: _438  and  _441
REMARK  171  A    between atoms: _441  and  _442
REMARK  172  A    between atoms: _445  and  _447
REMARK  173  A    between atoms: _447  and  _448
REMARK  174  A    between atoms: _447  and  _450
REMARK  175  A    between atoms: _450  and  _451
REMARK  176  A    between atoms: _454  and  _456
REMARK  177  A    between atoms: _456  and  _457
REMARK  178  A    between atoms: _460  and  _462
REMARK  179  A    between atoms: _462  and  _463
REMARK  180  A    between atoms: _462  and  _465
REMARK  181  A    between atoms: _465  and  _466
REMARK  182  A    between atoms: _466  and  _467
REMARK  183  A    between atoms: _469  and  _471
REMARK  184  A    between atoms: _471  and  _472
REMARK  185  A    between atoms: _471  and  _474
REMARK  186  A    between atoms: _474  and  _475
REMARK  187  A    between atoms: _475  and  _476
REMARK  188  A    between atoms: _479  and  _481
REMARK  189  A    between atoms: _481  and  _482
REMARK  190  A    between atoms: _481  and  _484
REMARK  191  A    between atoms: _486  and  _488
REMARK  192  A    between atoms: _488  and  _489
REMARK  193  A    between atoms: _492  and  _494
REMARK  194  A    between atoms: _494  and  _495
REMARK  195  A    between atoms: _494  and  _497
REMARK  196  A    between atoms: _499  and  _501
REMARK  197  A    between atoms: _501  and  _502
REMARK  198  A    between atoms: _505  and  _507
REMARK  199  A    between atoms: _507  and  _508
REMARK  200  A    between atoms: _507  and  _510
REMARK  201  A    between atoms: _510  and  _511
REMARK  202  A    between atoms: _514  and  _516
REMARK  203  A    between atoms: _516  and  _517
REMARK  204  A    between atoms: _516  and  _519
REMARK  205  A    between atoms: _519  and  _520
REMARK  206  A    between atoms: _523  and  _525
REMARK  207  A    between atoms: _525  and  _526
REMARK  208  A    between atoms: _525  and  _528
REMARK  209  A    between atoms: _528  and  _529
REMARK  210  A    between atoms: _534  and  _535
REMARK  211  A    between atoms: _537  and  _539
REMARK  212  A    between atoms: _539  and  _540
REMARK  213  A    between atoms: _539  and  _542
REMARK  214  A    between atoms: _545  and  _547
REMARK  215  A    between atoms: _547  and  _548
REMARK  216  A    between atoms: _547  and  _550
REMARK  217  A    between atoms: _550  and  _551
REMARK  218  A    between atoms: _557  and  _559
REMARK  219  A    between atoms: _559  and  _560
REMARK  220  A    between atoms: _559  and  _562
REMARK  221  A    between atoms: _562  and  _563
REMARK  222  A    between atoms: _565  and  _567
REMARK  223  A    between atoms: _567  and  _568
REMARK  224  A    between atoms: _567  and  _570
REMARK  225  A    between atoms: _572  and  _574
REMARK  226  A    between atoms: _574  and  _575
REMARK  227  A    between atoms: _574  and  _577
REMARK  228  A    between atoms: _577  and  _578
REMARK  229  A    between atoms: _583  and  _584
REMARK                            x       y       z     vdW  Elec       q    Type
REMARK                         _______ _______ _______ _____ _____    ______ ____
ROOT
ATOM      1  C   ASP A   5      29.480  42.739  -0.545  0.00  0.00    +0.241 C 
ATOM      2  N   ARG A   6      30.262  42.592   0.526  0.00  0.00    -0.297 N 
ATOM      3  H   ARG A   6      30.597  43.440   1.026  0.00  0.00    +0.150 HD
ATOM      4  O   ASP A   5      29.040  41.786  -1.203  0.00  0.00    -0.273 OA
ENDROOT
BRANCH   2   5
ATOM      5  CA  ARG A   6      30.666  41.260   1.022  0.00  0.00    +0.149 C 
BRANCH   5   6
ATOM      6  C   ARG A   6      29.474  40.354   1.328  0.00  0.00    +0.241 C 
ATOM      7  N   ASN A   7      28.384  40.955   1.823  0.00  0.00    -0.297 N 
ATOM      8  H   ASN A   7      28.401  41.978   2.008  0.00  0.00    +0.150 HD
ATOM      9  O   ARG A   6      29.545  39.124   1.134  0.00  0.00    -0.273 OA
BRANCH   7  10
ATOM     10  CA  ASN A   7      27.165  40.187   2.108  0.00  0.00    +0.158 C 
BRANCH  10  11
ATOM     11  C   ASN A   7      26.504  39.688   0.835  0.00  0.00    +0.241 C 
ATOM     12  O   ASN A   7      26.083  38.532   0.758  0.00  0.00    -0.273 OA
ATOM     13  N   ARG A   8      26.410  40.558  -0.169  0.00  0.00    -0.298 N 
ATOM     14  H   ARG A   8      26.743  41.535  -0.039  0.00  0.00    +0.150 HD
BRANCH  13  15
ATOM     15  CA  ARG A   8      25.843  40.150  -1.449  0.00  0.00    +0.137 C 
BRANCH  15  16
ATOM     16  C   ARG A   8      26.662  39.012  -2.068  0.00  0.00    +0.227 C 
ATOM     17  O   ARG A   8      26.101  38.083  -2.629  0.00  0.00    -0.286 OA
ENDBRANCH  15  16
BRANCH  15  18
ATOM     18  CB  ARG A   8      25.689  41.347  -2.396  0.00  0.00    +0.031 C 
BRANCH  18  19
ATOM     19  CG  ARG A   8      24.718  42.395  -1.817  0.00  0.00    +0.045 C 
BRANCH  19  20
ATOM     20  CD  ARG A   8      24.233  43.393  -2.872  0.00  0.00    +0.174 C 
BRANCH  20  21
ATOM     21  NE  ARG A   8      25.347  43.977  -3.615  0.00  0.00    -0.265 N 
ATOM     22  CZ  ARG A   8      26.136  44.956  -3.173  0.00  0.00    +0.342 C 
ATOM     23  NH2 ARG A   8      25.958  45.510  -1.959  0.00  0.00    -0.292 N 
ATOM     24 HH21 ARG A   8      25.191  45.175  -1.342  0.00  0.00    +0.255 HD
ATOM     25 HH22 ARG A   8      26.588  46.273  -1.638  0.00  0.00    +0.255 HD
ATOM     26  NH1 ARG A   8      27.118  45.384  -3.964  0.00  0.00    -0.292 N 
ATOM     27 HH11 ARG A   8      27.748  46.147  -3.644  0.00  0.00    +0.255 HD
ATOM     28 HH12 ARG A   8      27.254  44.956  -4.902  0.00  0.00    +0.255 HD
ATOM     29  HE  ARG A   8      25.540  43.599  -4.564  0.00  0.00    +0.259 HD
ENDBRANCH  20  21
ENDBRANCH  19  20
ENDBRANCH  18  19
ENDBRANCH  15  18
ENDBRANCH  13  15
ENDBRANCH  10  11
BRANCH  10  30
ATOM     30  CB  ASN A   7      26.172  41.000   2.945  0.00  0.00    +0.114 C 
BRANCH  30  31
ATOM     31  CG  ASN A   7      26.597  41.129   4.397  0.00  0.00    +0.222 C 
ATOM     32  ND2 ASN A   7      26.084  42.153   5.071  0.00  0.00    -0.329 N 
ATOM     33 HD21 ASN A   7      26.329  42.292   6.072  0.00  0.00    +0.145 HD
ATOM     34 HD22 ASN A   7      25.437  42.816   4.597  0.00  0.00    +0.145 HD
ATOM     35  OD1 ASN A   7      27.371  40.311   4.912  0.00  0.00    -0.275 OA
ENDBRANCH  30  31
ENDBRANCH  10  30
ENDBRANCH   7  10
ENDBRANCH   5   6
BRANCH   5  36
ATOM     36  CB  ARG A   6      31.544  41.379   2.272  0.00  0.00    +0.033 C 
BRANCH  36  37
ATOM     37  CG  ARG A   6      33.001  41.783   1.977  0.00  0.00    +0.045 C 
BRANCH  37  38
ATOM     38  CD  ARG A   6      33.824  41.742   3.260  0.00  0.00    +0.174 C 
BRANCH  38  39
ATOM     39  NE  ARG A   6      35.243  42.048   3.030  0.00  0.00    -0.265 N 
ATOM     40  CZ  ARG A   6      35.801  43.255   3.136  0.00  0.00    +0.342 C 
ATOM     41  NH2 ARG A   6      35.085  44.321   3.474  0.00  0.00    -0.292 N 
ATOM     42 HH21 ARG A   6      34.067  44.225   3.662  0.00  0.00    +0.255 HD
ATOM     43 HH22 ARG A   6      35.542  45.252   3.550  0.00  0.00    +0.255 HD
ATOM     44  NH1 ARG A   6      37.102  43.401   2.898  0.00  0.00    -0.292 N 
ATOM     45 HH11 ARG A   6      37.543  44.339   2.979  0.00  0.00    +0.255 HD
ATOM     46 HH12 ARG A   6      37.678  42.577   2.631  0.00  0.00    +0.255 HD
ATOM     47  HE  ARG A   6      35.864  41.258   2.762  0.00  0.00    +0.259 HD
ENDBRANCH  38  39
ENDBRANCH  37  38
ENDBRANCH  36  37
ENDBRANCH   5  36
ENDBRANCH   2   5
BRANCH   1  48
ATOM     48  CA  ASP A   5      29.126  44.177  -0.937  0.00  0.00    +0.160 C 
BRANCH  48  51
ATOM     49  C   THR A   4      27.699  44.585   1.021  0.00  0.00    +0.243 C 
ATOM     50  O   THR A   4      27.114  43.511   0.892  0.00  0.00    -0.273 OA
ATOM     51  N   ASP A   5      28.701  44.969   0.225  0.00  0.00    -0.296 N 
ATOM     52  H   ASP A   5      29.197  45.859   0.435  0.00  0.00    +0.150 HD
BRANCH  49  53
ATOM     53  CA  THR A   4      27.291  45.565   2.128  0.00  0.00    +0.176 C 
BRANCH  53  55
ATOM     54  C   PHE A   3      25.505  47.044   1.341  0.00  0.00    +0.241 C 
ATOM     55  N   THR A   4      25.869  45.937   1.990  0.00  0.00    -0.295 N 
ATOM     56  H   THR A   4      25.138  45.325   2.406  0.00  0.00    +0.150 HD
ATOM     57  O   PHE A   3      26.261  47.672   0.606  0.00  0.00    -0.273 OA
BRANCH  54  58
ATOM     58  CA  PHE A   3      24.072  47.527   1.543  0.00  0.00    +0.153 C 
BRANCH  58  60
ATOM     59  C   ASP A   2      22.899  45.585   0.717  0.00  0.00    +0.241 C 
ATOM     60  N   PHE A   3      23.167  46.407   1.720  0.00  0.00    -0.297 N 
ATOM     61  H   PHE A   3      22.723  46.248   2.647  0.00  0.00    +0.150 HD
ATOM     62  O   ASP A   2      23.345  45.727  -0.423  0.00  0.00    -0.273 OA
BRANCH  59  63
ATOM     63  CA  ASP A   2      21.982  44.433   1.059  0.00  0.00    +0.160 C 
BRANCH  63  66
ATOM     64  C   SER A   1      20.065  43.415   0.026  0.00  0.00    +0.241 C 
ATOM     65  O   SER A   1      19.553  43.169   1.125  0.00  0.00    -0.274 OA
ATOM     66  N   ASP A   2      21.273  43.956  -0.104  0.00  0.00    -0.297 N 
ATOM     67  H   ASP A   2      21.708  44.035  -1.046  0.00  0.00    +0.150 HD
BRANCH  64  68
ATOM     68  CA  SER A   1      19.339  43.070  -1.257  0.00  0.00    +0.174 C 
BRANCH  68  69
ATOM     69  N   SER A   1      18.574  41.833  -1.095  0.00  0.00    -0.236 NA
ATOM     70  H   SER A   1      18.256  41.536  -0.150  0.00  0.00    +0.142 HD
ENDBRANCH  68  69
BRANCH  68  71
ATOM     71  CB  SER A   1      18.408  44.216  -1.675  0.00  0.00    +0.163 C 
BRANCH  71  72
ATOM     72  OG  SER A   1      17.544  44.585  -0.617  0.00  0.00    -0.380 OA
ATOM     73  H   SER A   1      16.990  43.806  -0.358  0.00  0.00    +0.211 HD
ENDBRANCH  71  72
ENDBRANCH  68  71
ENDBRANCH  64  68
ENDBRANCH  63  66
BRANCH  63  74
ATOM     74  CB  ASP A   2      22.784  43.319   1.716  0.00  0.00    +0.143 C 
BRANCH  74  75
ATOM     75  CG  ASP A   2      23.145  43.654   3.149  0.00  0.00    +0.367 C 
ATOM     76  OD2 ASP A   2      22.234  43.671   3.995  0.00  0.00    -0.246 OA
ATOM     77  OD1 ASP A   2      24.334  43.915   3.423  0.00  0.00    -0.246 OA
ENDBRANCH  74  75
ENDBRANCH  63  74
ENDBRANCH  59  63
ENDBRANCH  58  60
BRANCH  58  78
ATOM     78  CB  PHE A   3      23.999  48.433   2.765  0.00  0.00    +0.055 C 
BRANCH  78  79
ATOM     79  CG  PHE A   3      24.841  49.666   2.649  0.00  0.00    -0.020 A 
ATOM     80  CD2 PHE A   3      26.170  49.661   3.078  0.00  0.00    -0.004 A 
ATOM     81  CE2 PHE A   3      26.957  50.810   2.961  0.00  0.00    -0.000 A 
ATOM     82  CZ  PHE A   3      26.404  51.969   2.410  0.00  0.00    -0.000 A 
ATOM     83  CE1 PHE A   3      25.069  51.986   1.986  0.00  0.00    -0.000 A 
ATOM     84  CD1 PHE A   3      24.301  50.831   2.098  0.00  0.00    -0.004 A 
ENDBRANCH  78  79
ENDBRANCH  58  78
ENDBRANCH  54  58
ENDBRANCH  53  55
BRANCH  53  85
ATOM     85  CB  THR A   4      27.586  44.998   3.553  0.00  0.00    +0.137 C 
ATOM     86  CG2 THR A   4      29.041  44.564   3.675  0.00  0.00    +0.034 C 
BRANCH  85  87
ATOM     87  OG1 THR A   4      27.319  46.008   4.543  0.00  0.00    -0.382 OA
ATOM     88  HG1 THR A   4      26.369  46.279   4.488  0.00  0.00    +0.210 HD
ENDBRANCH  85  87
ENDBRANCH  53  85
ENDBRANCH  49  53
ENDBRANCH  48  51
BRANCH  48  89
ATOM     89  CB  ASP A   5      30.320  44.834  -1.642  0.00  0.00    +0.143 C 
BRANCH  89  90
ATOM     90  CG  ASP A   5      30.004  46.230  -2.197  0.00  0.00    +0.367 C 
ATOM     91  OD2 ASP A   5      28.828  46.662  -2.197  0.00  0.00    -0.246 OA
ATOM     92  OD1 ASP A   5      30.963  46.898  -2.643  0.00  0.00    -0.246 OA
ENDBRANCH  89  90
ENDBRANCH  48  89
ENDBRANCH   1  48
TORSDOF 36
REMARK  Name = ../refined-set-2016/2a14/2a14_pocket.pdb
REMARK  229 active torsions:
REMARK  status: ('A' for Active; 'I' for Inactive)
REMARK    1  A    between atoms: _1  and  _5
REMARK    2  A    between atoms: _5  and  _6
REMARK    3  A    between atoms: _5  and  _8
REMARK    4  A    between atoms: _8  and  _9
REMARK    5  A    between atoms: _15  and  _17
REMARK    6  A    between atoms: _17  and  _18
REMARK    7  A    between atoms: _17  and  _20
REMARK    8  A    between atoms: _20  and  _21
REMARK    9  A    between atoms: _24  and  _26
REMARK   10  A    between atoms: _26  and  _27
REMARK   11  A    between atoms: _29  and  _31
REMARK   12  A    between atoms: _31  and  _32
REMARK   13  A    between atoms: _34  and  _36
REMARK   14  A    between atoms: _36  and  _37
REMARK   15  A    between atoms: _36  and  _39
REMARK   16  A    between atoms: _39  and  _40
REMARK   17  A    between atoms: _45  and  _46
REMARK   18  A    between atoms: _48  and  _50
REMARK   19  A    between atoms: _50  and  _51
REMARK   20  A    between atoms: _50  and  _53
REMARK   21  A    between atoms: _53  and  _54
REMARK   22  A    between atoms: _54  and  _55
REMARK   23  A    between atoms: _60  and  _62
REMARK   24  A    between atoms: _62  and  _63
REMARK   25  A    between atoms: _62  and  _65
REMARK   26  A    between atoms: _65  and  _66
REMARK   27  A    between atoms: _73  and  _74
REMARK   28  A    between atoms: _79  and  _81
REMARK   29  A    between atoms: _81  and  _82
REMARK   30  A    between atoms: _81  and  _84
REMARK   31  A    between atoms: _84  and  _85
REMARK   32  A    between atoms: _90  and  _91
REMARK   33  A    between atoms: _93  and  _95
REMARK   34  A    between atoms: _95  and  _96
REMARK   35  A    between atoms: _95  and  _98
REMARK   36  A    between atoms: _98  and  _99
REMARK   37  A    between atoms: _102  and  _104
REMARK   38  A    between atoms: _104  and  _105
REMARK   39  A    between atoms: _104  and  _107
REMARK   40  A    between atoms: _107  and  _108
REMARK   41  A    between atoms: _113  and  _114
REMARK   42  A    between atoms: _116  and  _118
REMARK   43  A    between atoms: _118  and  _119
REMARK   44  A    between atoms: _118  and  _121
REMARK   45  A    between atoms: _121  and  _122
REMARK   46  A    between atoms: _127  and  _128
REMARK   47  A    between atoms: _130  and  _132
REMARK   48  A    between atoms: _132  and  _133
REMARK   49  A    between atoms: _132  and  _135
REMARK   50  A    between atoms: _135  and  _136
REMARK   51  A    between atoms: _139  and  _141
REMARK   52  A    between atoms: _141  and  _142
REMARK   53  A    between atoms: _141  and  _144
REMARK   54  A    between atoms: _144  and  _145
REMARK   55  A    between atoms: _150  and  _152
REMARK   56  A    between atoms: _152  and  _153
REMARK   57  A    between atoms: _152  and  _155
REMARK   58  A    between atoms: _155  and  _156
REMARK   59  A    between atoms: _159  and  _161
REMARK   60  A    between atoms: _161  and  _162
REMARK   61  A    between atoms: _161  and  _164
REMARK   62  A    between atoms: _164  and  _165
REMARK   63  A    between atoms: _168  and  _170
REMARK   64  A    between atoms: _170  and  _171
REMARK   65  A    between atoms: _170  and  _173
REMARK   66  A    between atoms: _173  and  _174
REMARK   67  A    between atoms: _177  and  _179
REMARK   68  A    between atoms: _179  and  _180
REMARK   69  A    between atoms: _182  and  _184
REMARK   70  A    between atoms: _184  and  _185
REMARK   71  A    between atoms: _184  and  _187
REMARK   72  A    between atoms: _187  and  _188
REMARK   73  A    between atoms: _190  and  _192
REMARK   74  A    between atoms: _192  and  _193
REMARK   75  A    between atoms: _196  and  _197
REMARK   76  A    between atoms: _202  and  _204
REMARK   77  A    between atoms: _204  and  _205
REMARK   78  A    between atoms: _204  and  _207
REMARK   79  A    between atoms: _207  and  _208
REMARK   80  A    between atoms: _211  and  _213
REMARK   81  A    between atoms: _213  and  _214
REMARK   82  A    between atoms: _213  and  _216
REMARK   83  A    between atoms: _216  and  _217
REMARK   84  A    between atoms: _220  and  _222
REMARK   85  A    between atoms: _222  and  _223
REMARK   86  A    between atoms: _222  and  _225
REMARK   87  A    between atoms: _225  and  _226
REMARK   88  A    between atoms: _231  and  _232
REMARK   89  A    between atoms: _234  and  _236
REMARK   90  A    between atoms: _236  and  _237
REMARK   91  A    between atoms: _236  and  _239
REMARK   92  A    between atoms: _239  and  _240
REMARK   93  A    between atoms: _240  and  _241
REMARK   94  A    between atoms: _246  and  _248
REMARK   95  A    between atoms: _248  and  _249
REMARK   96  A    between atoms: _248  and  _251
REMARK   97  A    between atoms: _251  and  _252
REMARK   98  A    between atoms: _254  and  _256
REMARK   99  A    between atoms: _256  and  _257
REMARK  100  A    between atoms: _256  and  _259
REMARK  101  A    between atoms: _259  and  _260
REMARK  102  A    between atoms: _263  and  _265
REMARK  103  A    between atoms: _265  and  _266
REMARK  104  A    between atoms: _265  and  _268
REMARK  105  A    between atoms: _268  and  _269
REMARK  106  A    between atoms: _275  and  _277
REMARK  107  A    between atoms: _277  and  _278
REMARK  108  A    between atoms: _277  and  _280
REMARK  109  A    between atoms: _280  and  _281
REMARK  110  A    between atoms: _284  and  _286
REMARK  111  A    between atoms: _286  and  _287
REMARK  112  A    between atoms: _286  and  _289
REMARK  113  A    between atoms: _289  and  _290
REMARK  114  A    between atoms: _293  and  _295
REMARK  115  A    between atoms: _295  and  _296
REMARK  116  A    between atoms: _295  and  _298
REMARK  117  A    between atoms: _298  and  _299
REMARK  118  A    between atoms: _299  and  _300
REMARK  119  A    between atoms: _300  and  _301
REMARK  120  A    between atoms: _310  and  _312
REMARK  121  A    between atoms: _312  and  _313
REMARK  122  A    between atoms: _312  and  _315
REMARK  123  A    between atoms: _315  and  _316
REMARK  124  A    between atoms: _321  and  _323
REMARK  125  A    between atoms: _323  and  _324
REMARK  126  A    between atoms: _323  and  _326
REMARK  127  A    between atoms: _326  and  _327
REMARK  128  A    between atoms: _327  and  _328
REMARK  129  A    between atoms: _328  and  _329
REMARK  130  A    between atoms: _338  and  _340
REMARK  131  A    between atoms: _340  and  _341
REMARK  132  A    between atoms: _340  and  _343
REMARK  133  A    between atoms: _343  and  _344
REMARK  134  A    between atoms: _354  and  _356
REMARK  135  A    between atoms: _356  and  _357
REMARK  136  A    between atoms: _356  and  _359
REMARK  137  A    between atoms: _359  and  _360
REMARK  138  A    between atoms: _360  and  _361
REMARK  139  A    between atoms: _361  and  _362
REMARK  140  A    between atoms: _362  and  _363
REMARK  141  A    between atoms: _367  and  _369
REMARK  142  A    between atoms: _369  and  _370
REMARK  143  A    between atoms: _369  and  _372
REMARK  144  A    between atoms: _374  and  _376
REMARK  145  A    between atoms: _376  and  _377
REMARK  146  A    between atoms: _376  and  _379
REMARK  147  A    between atoms: _379  and  _380
REMARK  148  A    between atoms: _383  and  _385
REMARK  149  A    between atoms: _385  and  _386
REMARK  150  A    between atoms: _385  and  _388
REMARK  151  A    between atoms: _391  and  _393
REMARK  152  A    between atoms: _393  and  _394
REMARK  153  A    between atoms: _393  and  _396
REMARK  154  A    between atoms: _396  and  _397
REMARK  155  A    between atoms: _402  and  _404
REMARK  156  A    between atoms: _404  and  _405
REMARK  157  A    between atoms: _404  and  _407
REMARK  158  A    between atoms: _407  and  _408
REMARK  159  A    between atoms: _412  and  _413
REMARK  160  A    between atoms: _418  and  _420
REMARK  161  A    between atoms: _420  and  _421
REMARK  162  A    between atoms: _420  and  _423
REMARK  163  A    between atoms: _423  and  _424
REMARK  164  A    between atoms: _427  and  _429
REMARK  165  A    between atoms: _429  and  _430
REMARK  166  A    between atoms: _429  and  _432
REMARK  167  A    between atoms: _432  and  _433
REMARK  168  A    between atoms: _436  and  _438
REMARK  169  A    between atoms: _438  and  _439
REMARK  170  A    between atoms: _438  and  _441
REMARK  171  A    between atoms: _441  and  _442
REMARK  172  A    between atoms: _445  and  _447
REMARK  173  A    between atoms: _447  and  _448
REMARK  174  A    between atoms: _447  and  _450
REMARK  175  A    between atoms: _450  and  _451
REMARK  176  A    between atoms: _454  and  _456
REMARK  177  A    between atoms: _456  and  _457
REMARK  178  A    between atoms: _460  and  _462
REMARK  179  A    between atoms: _462  and  _463
REMARK  180  A    between atoms: _462  and  _465
REMARK  181  A    between atoms: _465  and  _466
REMARK  182  A    between atoms: _466  and  _467
REMARK  183  A    between atoms: _469  and  _471
REMARK  184  A    between atoms: _471  and  _472
REMARK  185  A    between atoms: _471  and  _474
REMARK  186  A    between atoms: _474  and  _475
REMARK  187  A    between atoms: _475  and  _476
REMARK  188  A    between atoms: _479  and  _481
REMARK  189  A    between atoms: _481  and  _482
REMARK  190  A    between atoms: _481  and  _484
REMARK  191  A    between atoms: _486  and  _488
REMARK  192  A    between atoms: _488  and  _489
REMARK  193  A    between atoms: _492  and  _494
REMARK  194  A    between atoms: _494  and  _495
REMARK  195  A    between atoms: _494  and  _497
REMARK  196  A    between atoms: _499  and  _501
REMARK  197  A    between atoms: _501  and  _502
REMARK  198  A    between atoms: _505  and  _507
REMARK  199  A    between atoms: _507  and  _508
REMARK  200  A    between atoms: _507  and  _510
REMARK  201  A    between atoms: _510  and  _511
REMARK  202  A    between atoms: _514  and  _516
REMARK  203  A    between atoms: _516  and  _517
REMARK  204  A    between atoms: _516  and  _519
REMARK  205  A    between atoms: _519  and  _520
REMARK  206  A    between atoms: _523  and  _525
REMARK  207  A    between atoms: _525  and  _526
REMARK  208  A    between atoms: _525  and  _528
REMARK  209  A    between atoms: _528  and  _529
REMARK  210  A    between atoms: _534  and  _535
REMARK  211  A    between atoms: _537  and  _539
REMARK  212  A    between atoms: _539  and  _540
REMARK  213  A    between atoms: _539  and  _542
REMARK  214  A    between atoms: _545  and  _547
REMARK  215  A    between atoms: _547  and  _548
REMARK  216  A    between atoms: _547  and  _550
REMARK  217  A    between atoms: _550  and  _551
REMARK  218  A    between atoms: _557  and  _559
REMARK  219  A    between atoms: _559  and  _560
REMARK  220  A    between atoms: _559  and  _562
REMARK  221  A    between atoms: _562  and  _563
REMARK  222  A    between atoms: _565  and  _567
REMARK  223  A    between atoms: _567  and  _568
REMARK  224  A    between atoms: _567  and  _570
REMARK  225  A    between atoms: _572  and  _574
REMARK  226  A    between atoms: _574  and  _575
REMARK  227  A    between atoms: _574  and  _577
REMARK  228  A    between atoms: _577  and  _578
REMARK  229  A    between atoms: _583  and  _584
REMARK                            x       y       z     vdW  Elec       q    Type
REMARK                         _______ _______ _______ _____ _____    ______ ____
ROOT
ATOM      1  CG  TRP A   1      21.690  28.916   5.414  0.00  0.00    -0.002 A 
ATOM      2  CD2 TRP A   1      21.541  29.918   6.423  0.00  0.00    +0.013 A 
ATOM      3  CE3 TRP A   1      20.802  29.999   7.615  0.00  0.00    +0.001 A 
ATOM      4  CZ3 TRP A   1      20.894  31.167   8.386  0.00  0.00    +0.000 A 
ATOM      5  CH2 TRP A   1      21.729  32.228   7.986  0.00  0.00    +0.001 A 
ATOM      6  CZ2 TRP A   1      22.462  32.170   6.823  0.00  0.00    +0.017 A 
ATOM      7  CE2 TRP A   1      22.361  31.007   6.049  0.00  0.00    +0.056 A 
ATOM      8  NE1 TRP A   1      22.968  30.675   4.863  0.00  0.00    -0.352 N 
ATOM      9  HE1 TRP A   1      23.625  31.278   4.328  0.00  0.00    +0.166 HD
ATOM     10  CD1 TRP A   1      22.563  29.413   4.501  0.00  0.00    +0.068 A 
ENDROOT
BRANCH   1  11
ATOM     11  CB  TRP A   1      21.050  27.571   5.390  0.00  0.00    +0.053 C 
BRANCH  11  12
ATOM     12  CA  TRP A   1      21.842  26.543   6.236  0.00  0.00    +0.137 C 
BRANCH  12  13
ATOM     13  N   TRP A   1      23.075  26.139   5.533  0.00  0.00    -0.239 NA
ATOM     14  H   TRP A   1      23.033  25.989   4.505  0.00  0.00    +0.142 HD
ENDBRANCH  12  13
BRANCH  12  15
ATOM     15  C   TRP A   1      20.944  25.358   6.592  0.00  0.00    +0.224 C 
ATOM     16  O   TRP A   1      19.800  25.542   7.027  0.00  0.00    -0.287 OA
ENDBRANCH  12  15
ENDBRANCH  11  12
ENDBRANCH   1  11
TORSDOF 4
REMARK  Name = ../refined-set-2016/2a14/2a14_pocket.pdb
REMARK  229 active torsions:
REMARK  status: ('A' for Active; 'I' for Inactive)
REMARK    1  A    between atoms: _1  and  _5
REMARK    2  A    between atoms: _5  and  _6
REMARK    3  A    between atoms: _5  and  _8
REMARK    4  A    between atoms: _8  and  _9
REMARK    5  A    between atoms: _15  and  _17
REMARK    6  A    between atoms: _17  and  _18
REMARK    7  A    between atoms: _17  and  _20
REMARK    8  A    between atoms: _20  and  _21
REMARK    9  A    between atoms: _24  and  _26
REMARK   10  A    between atoms: _26  and  _27
REMARK   11  A    between atoms: _29  and  _31
REMARK   12  A    between atoms: _31  and  _32
REMARK   13  A    between atoms: _34  and  _36
REMARK   14  A    between atoms: _36  and  _37
REMARK   15  A    between atoms: _36  and  _39
REMARK   16  A    between atoms: _39  and  _40
REMARK   17  A    between atoms: _45  and  _46
REMARK   18  A    between atoms: _48  and  _50
REMARK   19  A    between atoms: _50  and  _51
REMARK   20  A    between atoms: _50  and  _53
REMARK   21  A    between atoms: _53  and  _54
REMARK   22  A    between atoms: _54  and  _55
REMARK   23  A    between atoms: _60  and  _62
REMARK   24  A    between atoms: _62  and  _63
REMARK   25  A    between atoms: _62  and  _65
REMARK   26  A    between atoms: _65  and  _66
REMARK   27  A    between atoms: _73  and  _74
REMARK   28  A    between atoms: _79  and  _81
REMARK   29  A    between atoms: _81  and  _82
REMARK   30  A    between atoms: _81  and  _84
REMARK   31  A    between atoms: _84  and  _85
REMARK   32  A    between atoms: _90  and  _91
REMARK   33  A    between atoms: _93  and  _95
REMARK   34  A    between atoms: _95  and  _96
REMARK   35  A    between atoms: _95  and  _98
REMARK   36  A    between atoms: _98  and  _99
REMARK   37  A    between atoms: _102  and  _104
REMARK   38  A    between atoms: _104  and  _105
REMARK   39  A    between atoms: _104  and  _107
REMARK   40  A    between atoms: _107  and  _108
REMARK   41  A    between atoms: _113  and  _114
REMARK   42  A    between atoms: _116  and  _118
REMARK   43  A    between atoms: _118  and  _119
REMARK   44  A    between atoms: _118  and  _121
REMARK   45  A    between atoms: _121  and  _122
REMARK   46  A    between atoms: _127  and  _128
REMARK   47  A    between atoms: _130  and  _132
REMARK   48  A    between atoms: _132  and  _133
REMARK   49  A    between atoms: _132  and  _135
REMARK   50  A    between atoms: _135  and  _136
REMARK   51  A    between atoms: _139  and  _141
REMARK   52  A    between atoms: _141  and  _142
REMARK   53  A    between atoms: _141  and  _144
REMARK   54  A    between atoms: _144  and  _145
REMARK   55  A    between atoms: _150  and  _152
REMARK   56  A    between atoms: _152  and  _153
REMARK   57  A    between atoms: _152  and  _155
REMARK   58  A    between atoms: _155  and  _156
REMARK   59  A    between atoms: _159  and  _161
REMARK   60  A    between atoms: _161  and  _162
REMARK   61  A    between atoms: _161  and  _164
REMARK   62  A    between atoms: _164  and  _165
REMARK   63  A    between atoms: _168  and  _170
REMARK   64  A    between atoms: _170  and  _171
REMARK   65  A    between atoms: _170  and  _173
REMARK   66  A    between atoms: _173  and  _174
REMARK   67  A    between atoms: _177  and  _179
REMARK   68  A    between atoms: _179  and  _180
REMARK   69  A    between atoms: _182  and  _184
REMARK   70  A    between atoms: _184  and  _185
REMARK   71  A    between atoms: _184  and  _187
REMARK   72  A    between atoms: _187  and  _188
REMARK   73  A    between atoms: _190  and  _192
REMARK   74  A    between atoms: _192  and  _193
REMARK   75  A    between atoms: _196  and  _197
REMARK   76  A    between atoms: _202  and  _204
REMARK   77  A    between atoms: _204  and  _205
REMARK   78  A    between atoms: _204  and  _207
REMARK   79  A    between atoms: _207  and  _208
REMARK   80  A    between atoms: _211  and  _213
REMARK   81  A    between atoms: _213  and  _214
REMARK   82  A    between atoms: _213  and  _216
REMARK   83  A    between atoms: _216  and  _217
REMARK   84  A    between atoms: _220  and  _222
REMARK   85  A    between atoms: _222  and  _223
REMARK   86  A    between atoms: _222  and  _225
REMARK   87  A    between atoms: _225  and  _226
REMARK   88  A    between atoms: _231  and  _232
REMARK   89  A    between atoms: _234  and  _236
REMARK   90  A    between atoms: _236  and  _237
REMARK   91  A    between atoms: _236  and  _239
REMARK   92  A    between atoms: _239  and  _240
REMARK   93  A    between atoms: _240  and  _241
REMARK   94  A    between atoms: _246  and  _248
REMARK   95  A    between atoms: _248  and  _249
REMARK   96  A    between atoms: _248  and  _251
REMARK   97  A    between atoms: _251  and  _252
REMARK   98  A    between atoms: _254  and  _256
REMARK   99  A    between atoms: _256  and  _257
REMARK  100  A    between atoms: _256  and  _259
REMARK  101  A    between atoms: _259  and  _260
REMARK  102  A    between atoms: _263  and  _265
REMARK  103  A    between atoms: _265  and  _266
REMARK  104  A    between atoms: _265  and  _268
REMARK  105  A    between atoms: _268  and  _269
REMARK  106  A    between atoms: _275  and  _277
REMARK  107  A    between atoms: _277  and  _278
REMARK  108  A    between atoms: _277  and  _280
REMARK  109  A    between atoms: _280  and  _281
REMARK  110  A    between atoms: _284  and  _286
REMARK  111  A    between atoms: _286  and  _287
REMARK  112  A    between atoms: _286  and  _289
REMARK  113  A    between atoms: _289  and  _290
REMARK  114  A    between atoms: _293  and  _295
REMARK  115  A    between atoms: _295  and  _296
REMARK  116  A    between atoms: _295  and  _298
REMARK  117  A    between atoms: _298  and  _299
REMARK  118  A    between atoms: _299  and  _300
REMARK  119  A    between atoms: _300  and  _301
REMARK  120  A    between atoms: _310  and  _312
REMARK  121  A    between atoms: _312  and  _313
REMARK  122  A    between atoms: _312  and  _315
REMARK  123  A    between atoms: _315  and  _316
REMARK  124  A    between atoms: _321  and  _323
REMARK  125  A    between atoms: _323  and  _324
REMARK  126  A    between atoms: _323  and  _326
REMARK  127  A    between atoms: _326  and  _327
REMARK  128  A    between atoms: _327  and  _328
REMARK  129  A    between atoms: _328  and  _329
REMARK  130  A    between atoms: _338  and  _340
REMARK  131  A    between atoms: _340  and  _341
REMARK  132  A    between atoms: _340  and  _343
REMARK  133  A    between atoms: _343  and  _344
REMARK  134  A    between atoms: _354  and  _356
REMARK  135  A    between atoms: _356  and  _357
REMARK  136  A    between atoms: _356  and  _359
REMARK  137  A    between atoms: _359  and  _360
REMARK  138  A    between atoms: _360  and  _361
REMARK  139  A    between atoms: _361  and  _362
REMARK  140  A    between atoms: _362  and  _363
REMARK  141  A    between atoms: _367  and  _369
REMARK  142  A    between atoms: _369  and  _370
REMARK  143  A    between atoms: _369  and  _372
REMARK  144  A    between atoms: _374  and  _376
REMARK  145  A    between atoms: _376  and  _377
REMARK  146  A    between atoms: _376  and  _379
REMARK  147  A    between atoms: _379  and  _380
REMARK  148  A    between atoms: _383  and  _385
REMARK  149  A    between atoms: _385  and  _386
REMARK  150  A    between atoms: _385  and  _388
REMARK  151  A    between atoms: _391  and  _393
REMARK  152  A    between atoms: _393  and  _394
REMARK  153  A    between atoms: _393  and  _396
REMARK  154  A    between atoms: _396  and  _397
REMARK  155  A    between atoms: _402  and  _404
REMARK  156  A    between atoms: _404  and  _405
REMARK  157  A    between atoms: _404  and  _407
REMARK  158  A    between atoms: _407  and  _408
REMARK  159  A    between atoms: _412  and  _413
REMARK  160  A    between atoms: _418  and  _420
REMARK  161  A    between atoms: _420  and  _421
REMARK  162  A    between atoms: _420  and  _423
REMARK  163  A    between atoms: _423  and  _424
REMARK  164  A    between atoms: _427  and  _429
REMARK  165  A    between atoms: _429  and  _430
REMARK  166  A    between atoms: _429  and  _432
REMARK  167  A    between atoms: _432  and  _433
REMARK  168  A    between atoms: _436  and  _438
REMARK  169  A    between atoms: _438  and  _439
REMARK  170  A    between atoms: _438  and  _441
REMARK  171  A    between atoms: _441  and  _442
REMARK  172  A    between atoms: _445  and  _447
REMARK  173  A    between atoms: _447  and  _448
REMARK  174  A    between atoms: _447  and  _450
REMARK  175  A    between atoms: _450  and  _451
REMARK  176  A    between atoms: _454  and  _456
REMARK  177  A    between atoms: _456  and  _457
REMARK  178  A    between atoms: _460  and  _462
REMARK  179  A    between atoms: _462  and  _463
REMARK  180  A    between atoms: _462  and  _465
REMARK  181  A    between atoms: _465  and  _466
REMARK  182  A    between atoms: _466  and  _467
REMARK  183  A    between atoms: _469  and  _471
REMARK  184  A    between atoms: _471  and  _472
REMARK  185  A    between atoms: _471  and  _474
REMARK  186  A    between atoms: _474  and  _475
REMARK  187  A    between atoms: _475  and  _476
REMARK  188  A    between atoms: _479  and  _481
REMARK  189  A    between atoms: _481  and  _482
REMARK  190  A    between atoms: _481  and  _484
REMARK  191  A    between atoms: _486  and  _488
REMARK  192  A    between atoms: _488  and  _489
REMARK  193  A    between atoms: _492  and  _494
REMARK  194  A    between atoms: _494  and  _495
REMARK  195  A    between atoms: _494  and  _497
REMARK  196  A    between atoms: _499  and  _501
REMARK  197  A    between atoms: _501  and  _502
REMARK  198  A    between atoms: _505  and  _507
REMARK  199  A    between atoms: _507  and  _508
REMARK  200  A    between atoms: _507  and  _510
REMARK  201  A    between atoms: _510  and  _511
REMARK  202  A    between atoms: _514  and  _516
REMARK  203  A    between atoms: _516  and  _517
REMARK  204  A    between atoms: _516  and  _519
REMARK  205  A    between atoms: _519  and  _520
REMARK  206  A    between atoms: _523  and  _525
REMARK  207  A    between atoms: _525  and  _526
REMARK  208  A    between atoms: _525  and  _528
REMARK  209  A    between atoms: _528  and  _529
REMARK  210  A    between atoms: _534  and  _535
REMARK  211  A    between atoms: _537  and  _539
REMARK  212  A    between atoms: _539  and  _540
REMARK  213  A    between atoms: _539  and  _542
REMARK  214  A    between atoms: _545  and  _547
REMARK  215  A    between atoms: _547  and  _548
REMARK  216  A    between atoms: _547  and  _550
REMARK  217  A    between atoms: _550  and  _551
REMARK  218  A    between atoms: _557  and  _559
REMARK  219  A    between atoms: _559  and  _560
REMARK  220  A    between atoms: _559  and  _562
REMARK  221  A    between atoms: _562  and  _563
REMARK  222  A    between atoms: _565  and  _567
REMARK  223  A    between atoms: _567  and  _568
REMARK  224  A    between atoms: _567  and  _570
REMARK  225  A    between atoms: _572  and  _574
REMARK  226  A    between atoms: _574  and  _575
REMARK  227  A    between atoms: _574  and  _577
REMARK  228  A    between atoms: _577  and  _578
REMARK  229  A    between atoms: _583  and  _584
REMARK                            x       y       z     vdW  Elec       q    Type
REMARK                         _______ _______ _______ _____ _____    ______ ____
ROOT
ATOM      1  C   ASP A   3      18.922  52.246   1.520  0.00  0.00    +0.241 C 
ATOM      2  N   VAL A   4      18.486  51.897   2.730  0.00  0.00    -0.297 N 
ATOM      3  H   VAL A   4      19.107  51.349   3.359  0.00  0.00    +0.150 HD
ATOM      4  O   ASP A   3      18.307  53.004   0.775  0.00  0.00    -0.273 OA
ENDROOT
BRANCH   1   5
ATOM      5  CA  ASP A   3      20.249  51.646   1.085  0.00  0.00    +0.160 C 
BRANCH   5   8
ATOM      6  C   CYS A   2      20.681  49.596  -0.189  0.00  0.00    +0.242 C 
ATOM      7  O   CYS A   2      21.717  49.342   0.429  0.00  0.00    -0.273 OA
ATOM      8  N   ASP A   3      19.943  50.679   0.033  0.00  0.00    -0.297 N 
ATOM      9  H   ASP A   3      19.111  50.845  -0.569  0.00  0.00    +0.150 HD
BRANCH   6  10
ATOM     10  CA  CYS A   2      20.160  48.657  -1.267  0.00  0.00    +0.160 C 
BRANCH  10  12
ATOM     11  C   LYS A   1      21.257  47.463  -3.076  0.00  0.00    +0.238 C 
ATOM     12  N   CYS A   2      21.242  47.812  -1.794  0.00  0.00    -0.297 N 
ATOM     13  H   CYS A   2      21.999  47.486  -1.160  0.00  0.00    +0.150 HD
ATOM     14  O   LYS A   1      20.300  47.642  -3.833  0.00  0.00    -0.274 OA
BRANCH  11  15
ATOM     15  CA  LYS A   1      22.537  46.796  -3.588  0.00  0.00    +0.145 C 
BRANCH  15  16
ATOM     16  N   LYS A   1      22.160  45.809  -4.583  0.00  0.00    -0.238 NA
ATOM     17  H   LYS A   1      22.476  45.929  -5.567  0.00  0.00    +0.142 HD
ENDBRANCH  15  16
BRANCH  15  18
ATOM     18  CB  LYS A   1      23.468  47.833  -4.238  0.00  0.00    +0.026 C 
BRANCH  18  19
ATOM     19  CG  LYS A   1      23.751  49.077  -3.418  0.00  0.00    -0.000 C 
BRANCH  19  20
ATOM     20  CD  LYS A   1      24.797  48.820  -2.346  0.00  0.00    -0.024 C 
BRANCH  20  21
ATOM     21  CE  LYS A   1      24.988  50.067  -1.491  0.00  0.00    -0.086 C 
BRANCH  21  22
ATOM     22  NZ  LYS A   1      26.286  50.049  -0.806  0.00  0.00    +0.380 N 
ATOM     23  HZ1 LYS A   1      26.340  49.213  -0.190  0.00  0.00    -0.089 HD
ATOM     24  HZ2 LYS A   1      26.386  50.911  -0.232  0.00  0.00    -0.089 HD
ATOM     25  HZ3 LYS A   1      27.049  50.011  -1.512  0.00  0.00    -0.089 HD
ENDBRANCH  21  22
ENDBRANCH  20  21
ENDBRANCH  19  20
ENDBRANCH  18  19
ENDBRANCH  15  18
ENDBRANCH  11  15
ENDBRANCH  10  12
BRANCH  10  26
ATOM     26  CB  CYS A   2      19.009  47.811  -0.710  0.00  0.00    +0.098 C 
ATOM     27  SG  CYS A   2      19.423  46.916   0.805  0.00  0.00    -0.080 S 
ENDBRANCH  10  26
ENDBRANCH   6  10
ENDBRANCH   5   8
BRANCH   5  28
ATOM     28  CB  ASP A   3      21.191  52.740   0.560  0.00  0.00    +0.143 C 
BRANCH  28  29
ATOM     29  CG  ASP A   3      21.498  53.808   1.602  0.00  0.00    +0.367 C 
ATOM     30  OD2 ASP A   3      20.911  53.781   2.710  0.00  0.00    -0.246 OA
ATOM     31  OD1 ASP A   3      22.364  54.670   1.315  0.00  0.00    -0.246 OA
ENDBRANCH  28  29
ENDBRANCH   5  28
ENDBRANCH   1   5
BRANCH   2  32
ATOM     32  CA  VAL A   4      17.140  52.275   3.191  0.00  0.00    +0.149 C 
BRANCH  32  33
ATOM     33  C   VAL A   4      16.939  53.785   3.361  0.00  0.00    +0.241 C 
ATOM     34  O   VAL A   4      15.810  54.233   3.550  0.00  0.00    -0.273 OA
ATOM     35  N   HIS A   5      18.025  54.555   3.328  0.00  0.00    -0.297 N 
ATOM     36  H   HIS A   5      18.960  54.117   3.202  0.00  0.00    +0.150 HD
BRANCH  35  37
ATOM     37  CA  HIS A   5      17.922  56.015   3.467  0.00  0.00    +0.155 C 
BRANCH  37  38
ATOM     38  C   HIS A   5      17.509  56.700   2.178  0.00  0.00    +0.241 C 
ATOM     39  O   HIS A   5      17.058  57.850   2.196  0.00  0.00    -0.273 OA
ATOM     40  N   LEU A   6      17.685  56.001   1.062  0.00  0.00    -0.298 N 
ATOM     41  H   LEU A   6      18.113  55.055   1.121  0.00  0.00    +0.150 HD
BRANCH  40  42
ATOM     42  CA  LEU A   6      17.295  56.522  -0.246  0.00  0.00    +0.137 C 
BRANCH  42  43
ATOM     43  C   LEU A   6      15.784  56.434  -0.437  0.00  0.00    +0.227 C 
ATOM     44  O   LEU A   6      15.155  55.448  -0.003  0.00  0.00    -0.286 OA
ENDBRANCH  42  43
BRANCH  42  45
ATOM     45  CB  LEU A   6      18.001  55.748  -1.365  0.00  0.00    +0.028 C 
BRANCH  45  46
ATOM     46  CG  LEU A   6      19.535  55.802  -1.427  0.00  0.00    +0.002 C 
ATOM     47  CD2 LEU A   6      20.031  57.239  -1.589  0.00  0.00    +0.000 C 
ATOM     48  CD1 LEU A   6      20.011  54.935  -2.573  0.00  0.00    +0.000 C 
ENDBRANCH  45  46
ENDBRANCH  42  45
ENDBRANCH  40  42
ENDBRANCH  37  38
BRANCH  37  49
ATOM     49  CB  HIS A   5      19.247  56.606   3.961  0.00  0.00    +0.076 C 
BRANCH  49  50
ATOM     50  CG  HIS A   5      19.739  55.976   5.226  0.00  0.00    +0.082 A 
ATOM     51  ND1 HIS A   5      19.011  56.002   6.397  0.00  0.00    -0.227 NA
ATOM     52  CE1 HIS A   5      19.678  55.360   7.342  0.00  0.00    +0.199 A 
ATOM     53  NE2 HIS A   5      20.814  54.920   6.825  0.00  0.00    -0.221 NA
ATOM     54  CD2 HIS A   5      20.875  55.288   5.501  0.00  0.00    +0.115 A 
ENDBRANCH  49  50
ENDBRANCH  37  49
ENDBRANCH  35  37
ENDBRANCH  32  33
BRANCH  32  55
ATOM     55  CB  VAL A   4      16.758  51.593   4.532  0.00  0.00    +0.027 C 
ATOM     56  CG2 VAL A   4      17.666  52.053   5.663  0.00  0.00    +0.002 C 
ATOM     57  CG1 VAL A   4      16.789  50.065   4.381  0.00  0.00    +0.002 C 
ENDBRANCH  32  55
ENDBRANCH   2  32
TORSDOF 25
REMARK  Name = ../refined-set-2016/2a14/2a14_pocket.pdb
REMARK  229 active torsions:
REMARK  status: ('A' for Active; 'I' for Inactive)
REMARK    1  A    between atoms: _1  and  _5
REMARK    2  A    between atoms: _5  and  _6
REMARK    3  A    between atoms: _5  and  _8
REMARK    4  A    between atoms: _8  and  _9
REMARK    5  A    between atoms: _15  and  _17
REMARK    6  A    between atoms: _17  and  _18
REMARK    7  A    between atoms: _17  and  _20
REMARK    8  A    between atoms: _20  and  _21
REMARK    9  A    between atoms: _24  and  _26
REMARK   10  A    between atoms: _26  and  _27
REMARK   11  A    between atoms: _29  and  _31
REMARK   12  A    between atoms: _31  and  _32
REMARK   13  A    between atoms: _34  and  _36
REMARK   14  A    between atoms: _36  and  _37
REMARK   15  A    between atoms: _36  and  _39
REMARK   16  A    between atoms: _39  and  _40
REMARK   17  A    between atoms: _45  and  _46
REMARK   18  A    between atoms: _48  and  _50
REMARK   19  A    between atoms: _50  and  _51
REMARK   20  A    between atoms: _50  and  _53
REMARK   21  A    between atoms: _53  and  _54
REMARK   22  A    between atoms: _54  and  _55
REMARK   23  A    between atoms: _60  and  _62
REMARK   24  A    between atoms: _62  and  _63
REMARK   25  A    between atoms: _62  and  _65
REMARK   26  A    between atoms: _65  and  _66
REMARK   27  A    between atoms: _73  and  _74
REMARK   28  A    between atoms: _79  and  _81
REMARK   29  A    between atoms: _81  and  _82
REMARK   30  A    between atoms: _81  and  _84
REMARK   31  A    between atoms: _84  and  _85
REMARK   32  A    between atoms: _90  and  _91
REMARK   33  A    between atoms: _93  and  _95
REMARK   34  A    between atoms: _95  and  _96
REMARK   35  A    between atoms: _95  and  _98
REMARK   36  A    between atoms: _98  and  _99
REMARK   37  A    between atoms: _102  and  _104
REMARK   38  A    between atoms: _104  and  _105
REMARK   39  A    between atoms: _104  and  _107
REMARK   40  A    between atoms: _107  and  _108
REMARK   41  A    between atoms: _113  and  _114
REMARK   42  A    between atoms: _116  and  _118
REMARK   43  A    between atoms: _118  and  _119
REMARK   44  A    between atoms: _118  and  _121
REMARK   45  A    between atoms: _121  and  _122
REMARK   46  A    between atoms: _127  and  _128
REMARK   47  A    between atoms: _130  and  _132
REMARK   48  A    between atoms: _132  and  _133
REMARK   49  A    between atoms: _132  and  _135
REMARK   50  A    between atoms: _135  and  _136
REMARK   51  A    between atoms: _139  and  _141
REMARK   52  A    between atoms: _141  and  _142
REMARK   53  A    between atoms: _141  and  _144
REMARK   54  A    between atoms: _144  and  _145
REMARK   55  A    between atoms: _150  and  _152
REMARK   56  A    between atoms: _152  and  _153
REMARK   57  A    between atoms: _152  and  _155
REMARK   58  A    between atoms: _155  and  _156
REMARK   59  A    between atoms: _159  and  _161
REMARK   60  A    between atoms: _161  and  _162
REMARK   61  A    between atoms: _161  and  _164
REMARK   62  A    between atoms: _164  and  _165
REMARK   63  A    between atoms: _168  and  _170
REMARK   64  A    between atoms: _170  and  _171
REMARK   65  A    between atoms: _170  and  _173
REMARK   66  A    between atoms: _173  and  _174
REMARK   67  A    between atoms: _177  and  _179
REMARK   68  A    between atoms: _179  and  _180
REMARK   69  A    between atoms: _182  and  _184
REMARK   70  A    between atoms: _184  and  _185
REMARK   71  A    between atoms: _184  and  _187
REMARK   72  A    between atoms: _187  and  _188
REMARK   73  A    between atoms: _190  and  _192
REMARK   74  A    between atoms: _192  and  _193
REMARK   75  A    between atoms: _196  and  _197
REMARK   76  A    between atoms: _202  and  _204
REMARK   77  A    between atoms: _204  and  _205
REMARK   78  A    between atoms: _204  and  _207
REMARK   79  A    between atoms: _207  and  _208
REMARK   80  A    between atoms: _211  and  _213
REMARK   81  A    between atoms: _213  and  _214
REMARK   82  A    between atoms: _213  and  _216
REMARK   83  A    between atoms: _216  and  _217
REMARK   84  A    between atoms: _220  and  _222
REMARK   85  A    between atoms: _222  and  _223
REMARK   86  A    between atoms: _222  and  _225
REMARK   87  A    between atoms: _225  and  _226
REMARK   88  A    between atoms: _231  and  _232
REMARK   89  A    between atoms: _234  and  _236
REMARK   90  A    between atoms: _236  and  _237
REMARK   91  A    between atoms: _236  and  _239
REMARK   92  A    between atoms: _239  and  _240
REMARK   93  A    between atoms: _240  and  _241
REMARK   94  A    between atoms: _246  and  _248
REMARK   95  A    between atoms: _248  and  _249
REMARK   96  A    between atoms: _248  and  _251
REMARK   97  A    between atoms: _251  and  _252
REMARK   98  A    between atoms: _254  and  _256
REMARK   99  A    between atoms: _256  and  _257
REMARK  100  A    between atoms: _256  and  _259
REMARK  101  A    between atoms: _259  and  _260
REMARK  102  A    between atoms: _263  and  _265
REMARK  103  A    between atoms: _265  and  _266
REMARK  104  A    between atoms: _265  and  _268
REMARK  105  A    between atoms: _268  and  _269
REMARK  106  A    between atoms: _275  and  _277
REMARK  107  A    between atoms: _277  and  _278
REMARK  108  A    between atoms: _277  and  _280
REMARK  109  A    between atoms: _280  and  _281
REMARK  110  A    between atoms: _284  and  _286
REMARK  111  A    between atoms: _286  and  _287
REMARK  112  A    between atoms: _286  and  _289
REMARK  113  A    between atoms: _289  and  _290
REMARK  114  A    between atoms: _293  and  _295
REMARK  115  A    between atoms: _295  and  _296
REMARK  116  A    between atoms: _295  and  _298
REMARK  117  A    between atoms: _298  and  _299
REMARK  118  A    between atoms: _299  and  _300
REMARK  119  A    between atoms: _300  and  _301
REMARK  120  A    between atoms: _310  and  _312
REMARK  121  A    between atoms: _312  and  _313
REMARK  122  A    between atoms: _312  and  _315
REMARK  123  A    between atoms: _315  and  _316
REMARK  124  A    between atoms: _321  and  _323
REMARK  125  A    between atoms: _323  and  _324
REMARK  126  A    between atoms: _323  and  _326
REMARK  127  A    between atoms: _326  and  _327
REMARK  128  A    between atoms: _327  and  _328
REMARK  129  A    between atoms: _328  and  _329
REMARK  130  A    between atoms: _338  and  _340
REMARK  131  A    between atoms: _340  and  _341
REMARK  132  A    between atoms: _340  and  _343
REMARK  133  A    between atoms: _343  and  _344
REMARK  134  A    between atoms: _354  and  _356
REMARK  135  A    between atoms: _356  and  _357
REMARK  136  A    between atoms: _356  and  _359
REMARK  137  A    between atoms: _359  and  _360
REMARK  138  A    between atoms: _360  and  _361
REMARK  139  A    between atoms: _361  and  _362
REMARK  140  A    between atoms: _362  and  _363
REMARK  141  A    between atoms: _367  and  _369
REMARK  142  A    between atoms: _369  and  _370
REMARK  143  A    between atoms: _369  and  _372
REMARK  144  A    between atoms: _374  and  _376
REMARK  145  A    between atoms: _376  and  _377
REMARK  146  A    between atoms: _376  and  _379
REMARK  147  A    between atoms: _379  and  _380
REMARK  148  A    between atoms: _383  and  _385
REMARK  149  A    between atoms: _385  and  _386
REMARK  150  A    between atoms: _385  and  _388
REMARK  151  A    between atoms: _391  and  _393
REMARK  152  A    between atoms: _393  and  _394
REMARK  153  A    between atoms: _393  and  _396
REMARK  154  A    between atoms: _396  and  _397
REMARK  155  A    between atoms: _402  and  _404
REMARK  156  A    between atoms: _404  and  _405
REMARK  157  A    between atoms: _404  and  _407
REMARK  158  A    between atoms: _407  and  _408
REMARK  159  A    between atoms: _412  and  _413
REMARK  160  A    between atoms: _418  and  _420
REMARK  161  A    between atoms: _420  and  _421
REMARK  162  A    between atoms: _420  and  _423
REMARK  163  A    between atoms: _423  and  _424
REMARK  164  A    between atoms: _427  and  _429
REMARK  165  A    between atoms: _429  and  _430
REMARK  166  A    between atoms: _429  and  _432
REMARK  167  A    between atoms: _432  and  _433
REMARK  168  A    between atoms: _436  and  _438
REMARK  169  A    between atoms: _438  and  _439
REMARK  170  A    between atoms: _438  and  _441
REMARK  171  A    between atoms: _441  and  _442
REMARK  172  A    between atoms: _445  and  _447
REMARK  173  A    between atoms: _447  and  _448
REMARK  174  A    between atoms: _447  and  _450
REMARK  175  A    between atoms: _450  and  _451
REMARK  176  A    between atoms: _454  and  _456
REMARK  177  A    between atoms: _456  and  _457
REMARK  178  A    between atoms: _460  and  _462
REMARK  179  A    between atoms: _462  and  _463
REMARK  180  A    between atoms: _462  and  _465
REMARK  181  A    between atoms: _465  and  _466
REMARK  182  A    between atoms: _466  and  _467
REMARK  183  A    between atoms: _469  and  _471
REMARK  184  A    between atoms: _471  and  _472
REMARK  185  A    between atoms: _471  and  _474
REMARK  186  A    between atoms: _474  and  _475
REMARK  187  A    between atoms: _475  and  _476
REMARK  188  A    between atoms: _479  and  _481
REMARK  189  A    between atoms: _481  and  _482
REMARK  190  A    between atoms: _481  and  _484
REMARK  191  A    between atoms: _486  and  _488
REMARK  192  A    between atoms: _488  and  _489
REMARK  193  A    between atoms: _492  and  _494
REMARK  194  A    between atoms: _494  and  _495
REMARK  195  A    between atoms: _494  and  _497
REMARK  196  A    between atoms: _499  and  _501
REMARK  197  A    between atoms: _501  and  _502
REMARK  198  A    between atoms: _505  and  _507
REMARK  199  A    between atoms: _507  and  _508
REMARK  200  A    between atoms: _507  and  _510
REMARK  201  A    between atoms: _510  and  _511
REMARK  202  A    between atoms: _514  and  _516
REMARK  203  A    between atoms: _516  and  _517
REMARK  204  A    between atoms: _516  and  _519
REMARK  205  A    between atoms: _519  and  _520
REMARK  206  A    between atoms: _523  and  _525
REMARK  207  A    between atoms: _525  and  _526
REMARK  208  A    between atoms: _525  and  _528
REMARK  209  A    between atoms: _528  and  _529
REMARK  210  A    between atoms: _534  and  _535
REMARK  211  A    between atoms: _537  and  _539
REMARK  212  A    between atoms: _539  and  _540
REMARK  213  A    between atoms: _539  and  _542
REMARK  214  A    between atoms: _545  and  _547
REMARK  215  A    between atoms: _547  and  _548
REMARK  216  A    between atoms: _547  and  _550
REMARK  217  A    between atoms: _550  and  _551
REMARK  218  A    between atoms: _557  and  _559
REMARK  219  A    between atoms: _559  and  _560
REMARK  220  A    between atoms: _559  and  _562
REMARK  221  A    between atoms: _562  and  _563
REMARK  222  A    between atoms: _565  and  _567
REMARK  223  A    between atoms: _567  and  _568
REMARK  224  A    between atoms: _567  and  _570
REMARK  225  A    between atoms: _572  and  _574
REMARK  226  A    between atoms: _574  and  _575
REMARK  227  A    between atoms: _574  and  _577
REMARK  228  A    between atoms: _577  and  _578
REMARK  229  A    between atoms: _583  and  _584
REMARK                            x       y       z     vdW  Elec       q    Type
REMARK                         _______ _______ _______ _____ _____    ______ ____
ROOT
ATOM      1  N   PRO A   1      15.087  52.832  -2.132  0.00  0.00    -0.212 NA
ATOM      2  CD  PRO A   1      13.849  52.632  -1.348  0.00  0.00    +0.089 C 
ATOM      3  CG  PRO A   1      14.372  52.055  -0.035  0.00  0.00    +0.021 C 
ATOM      4  CB  PRO A   1      15.509  51.153  -0.538  0.00  0.00    +0.027 C 
ATOM      5  CA  PRO A   1      16.208  52.056  -1.569  0.00  0.00    +0.137 C 
ENDROOT
BRANCH   5   6
ATOM      6  C   PRO A   1      17.050  51.231  -2.565  0.00  0.00    +0.224 C 
ATOM      7  O   PRO A   1      18.211  50.951  -2.288  0.00  0.00    -0.287 OA
ENDBRANCH   5   6
TORSDOF 1
REMARK  Name = ../refined-set-2016/2a14/2a14_pocket.pdb
REMARK  229 active torsions:
REMARK  status: ('A' for Active; 'I' for Inactive)
REMARK    1  A    between atoms: _1  and  _5
REMARK    2  A    between atoms: _5  and  _6
REMARK    3  A    between atoms: _5  and  _8
REMARK    4  A    between atoms: _8  and  _9
REMARK    5  A    between atoms: _15  and  _17
REMARK    6  A    between atoms: _17  and  _18
REMARK    7  A    between atoms: _17  and  _20
REMARK    8  A    between atoms: _20  and  _21
REMARK    9  A    between atoms: _24  and  _26
REMARK   10  A    between atoms: _26  and  _27
REMARK   11  A    between atoms: _29  and  _31
REMARK   12  A    between atoms: _31  and  _32
REMARK   13  A    between atoms: _34  and  _36
REMARK   14  A    between atoms: _36  and  _37
REMARK   15  A    between atoms: _36  and  _39
REMARK   16  A    between atoms: _39  and  _40
REMARK   17  A    between atoms: _45  and  _46
REMARK   18  A    between atoms: _48  and  _50
REMARK   19  A    between atoms: _50  and  _51
REMARK   20  A    between atoms: _50  and  _53
REMARK   21  A    between atoms: _53  and  _54
REMARK   22  A    between atoms: _54  and  _55
REMARK   23  A    between atoms: _60  and  _62
REMARK   24  A    between atoms: _62  and  _63
REMARK   25  A    between atoms: _62  and  _65
REMARK   26  A    between atoms: _65  and  _66
REMARK   27  A    between atoms: _73  and  _74
REMARK   28  A    between atoms: _79  and  _81
REMARK   29  A    between atoms: _81  and  _82
REMARK   30  A    between atoms: _81  and  _84
REMARK   31  A    between atoms: _84  and  _85
REMARK   32  A    between atoms: _90  and  _91
REMARK   33  A    between atoms: _93  and  _95
REMARK   34  A    between atoms: _95  and  _96
REMARK   35  A    between atoms: _95  and  _98
REMARK   36  A    between atoms: _98  and  _99
REMARK   37  A    between atoms: _102  and  _104
REMARK   38  A    between atoms: _104  and  _105
REMARK   39  A    between atoms: _104  and  _107
REMARK   40  A    between atoms: _107  and  _108
REMARK   41  A    between atoms: _113  and  _114
REMARK   42  A    between atoms: _116  and  _118
REMARK   43  A    between atoms: _118  and  _119
REMARK   44  A    between atoms: _118  and  _121
REMARK   45  A    between atoms: _121  and  _122
REMARK   46  A    between atoms: _127  and  _128
REMARK   47  A    between atoms: _130  and  _132
REMARK   48  A    between atoms: _132  and  _133
REMARK   49  A    between atoms: _132  and  _135
REMARK   50  A    between atoms: _135  and  _136
REMARK   51  A    between atoms: _139  and  _141
REMARK   52  A    between atoms: _141  and  _142
REMARK   53  A    between atoms: _141  and  _144
REMARK   54  A    between atoms: _144  and  _145
REMARK   55  A    between atoms: _150  and  _152
REMARK   56  A    between atoms: _152  and  _153
REMARK   57  A    between atoms: _152  and  _155
REMARK   58  A    between atoms: _155  and  _156
REMARK   59  A    between atoms: _159  and  _161
REMARK   60  A    between atoms: _161  and  _162
REMARK   61  A    between atoms: _161  and  _164
REMARK   62  A    between atoms: _164  and  _165
REMARK   63  A    between atoms: _168  and  _170
REMARK   64  A    between atoms: _170  and  _171
REMARK   65  A    between atoms: _170  and  _173
REMARK   66  A    between atoms: _173  and  _174
REMARK   67  A    between atoms: _177  and  _179
REMARK   68  A    between atoms: _179  and  _180
REMARK   69  A    between atoms: _182  and  _184
REMARK   70  A    between atoms: _184  and  _185
REMARK   71  A    between atoms: _184  and  _187
REMARK   72  A    between atoms: _187  and  _188
REMARK   73  A    between atoms: _190  and  _192
REMARK   74  A    between atoms: _192  and  _193
REMARK   75  A    between atoms: _196  and  _197
REMARK   76  A    between atoms: _202  and  _204
REMARK   77  A    between atoms: _204  and  _205
REMARK   78  A    between atoms: _204  and  _207
REMARK   79  A    between atoms: _207  and  _208
REMARK   80  A    between atoms: _211  and  _213
REMARK   81  A    between atoms: _213  and  _214
REMARK   82  A    between atoms: _213  and  _216
REMARK   83  A    between atoms: _216  and  _217
REMARK   84  A    between atoms: _220  and  _222
REMARK   85  A    between atoms: _222  and  _223
REMARK   86  A    between atoms: _222  and  _225
REMARK   87  A    between atoms: _225  and  _226
REMARK   88  A    between atoms: _231  and  _232
REMARK   89  A    between atoms: _234  and  _236
REMARK   90  A    between atoms: _236  and  _237
REMARK   91  A    between atoms: _236  and  _239
REMARK   92  A    between atoms: _239  and  _240
REMARK   93  A    between atoms: _240  and  _241
REMARK   94  A    between atoms: _246  and  _248
REMARK   95  A    between atoms: _248  and  _249
REMARK   96  A    between atoms: _248  and  _251
REMARK   97  A    between atoms: _251  and  _252
REMARK   98  A    between atoms: _254  and  _256
REMARK   99  A    between atoms: _256  and  _257
REMARK  100  A    between atoms: _256  and  _259
REMARK  101  A    between atoms: _259  and  _260
REMARK  102  A    between atoms: _263  and  _265
REMARK  103  A    between atoms: _265  and  _266
REMARK  104  A    between atoms: _265  and  _268
REMARK  105  A    between atoms: _268  and  _269
REMARK  106  A    between atoms: _275  and  _277
REMARK  107  A    between atoms: _277  and  _278
REMARK  108  A    between atoms: _277  and  _280
REMARK  109  A    between atoms: _280  and  _281
REMARK  110  A    between atoms: _284  and  _286
REMARK  111  A    between atoms: _286  and  _287
REMARK  112  A    between atoms: _286  and  _289
REMARK  113  A    between atoms: _289  and  _290
REMARK  114  A    between atoms: _293  and  _295
REMARK  115  A    between atoms: _295  and  _296
REMARK  116  A    between atoms: _295  and  _298
REMARK  117  A    between atoms: _298  and  _299
REMARK  118  A    between atoms: _299  and  _300
REMARK  119  A    between atoms: _300  and  _301
REMARK  120  A    between atoms: _310  and  _312
REMARK  121  A    between atoms: _312  and  _313
REMARK  122  A    between atoms: _312  and  _315
REMARK  123  A    between atoms: _315  and  _316
REMARK  124  A    between atoms: _321  and  _323
REMARK  125  A    between atoms: _323  and  _324
REMARK  126  A    between atoms: _323  and  _326
REMARK  127  A    between atoms: _326  and  _327
REMARK  128  A    between atoms: _327  and  _328
REMARK  129  A    between atoms: _328  and  _329
REMARK  130  A    between atoms: _338  and  _340
REMARK  131  A    between atoms: _340  and  _341
REMARK  132  A    between atoms: _340  and  _343
REMARK  133  A    between atoms: _343  and  _344
REMARK  134  A    between atoms: _354  and  _356
REMARK  135  A    between atoms: _356  and  _357
REMARK  136  A    between atoms: _356  and  _359
REMARK  137  A    between atoms: _359  and  _360
REMARK  138  A    between atoms: _360  and  _361
REMARK  139  A    between atoms: _361  and  _362
REMARK  140  A    between atoms: _362  and  _363
REMARK  141  A    between atoms: _367  and  _369
REMARK  142  A    between atoms: _369  and  _370
REMARK  143  A    between atoms: _369  and  _372
REMARK  144  A    between atoms: _374  and  _376
REMARK  145  A    between atoms: _376  and  _377
REMARK  146  A    between atoms: _376  and  _379
REMARK  147  A    between atoms: _379  and  _380
REMARK  148  A    between atoms: _383  and  _385
REMARK  149  A    between atoms: _385  and  _386
REMARK  150  A    between atoms: _385  and  _388
REMARK  151  A    between atoms: _391  and  _393
REMARK  152  A    between atoms: _393  and  _394
REMARK  153  A    between atoms: _393  and  _396
REMARK  154  A    between atoms: _396  and  _397
REMARK  155  A    between atoms: _402  and  _404
REMARK  156  A    between atoms: _404  and  _405
REMARK  157  A    between atoms: _404  and  _407
REMARK  158  A    between atoms: _407  and  _408
REMARK  159  A    between atoms: _412  and  _413
REMARK  160  A    between atoms: _418  and  _420
REMARK  161  A    between atoms: _420  and  _421
REMARK  162  A    between atoms: _420  and  _423
REMARK  163  A    between atoms: _423  and  _424
REMARK  164  A    between atoms: _427  and  _429
REMARK  165  A    between atoms: _429  and  _430
REMARK  166  A    between atoms: _429  and  _432
REMARK  167  A    between atoms: _432  and  _433
REMARK  168  A    between atoms: _436  and  _438
REMARK  169  A    between atoms: _438  and  _439
REMARK  170  A    between atoms: _438  and  _441
REMARK  171  A    between atoms: _441  and  _442
REMARK  172  A    between atoms: _445  and  _447
REMARK  173  A    between atoms: _447  and  _448
REMARK  174  A    between atoms: _447  and  _450
REMARK  175  A    between atoms: _450  and  _451
REMARK  176  A    between atoms: _454  and  _456
REMARK  177  A    between atoms: _456  and  _457
REMARK  178  A    between atoms: _460  and  _462
REMARK  179  A    between atoms: _462  and  _463
REMARK  180  A    between atoms: _462  and  _465
REMARK  181  A    between atoms: _465  and  _466
REMARK  182  A    between atoms: _466  and  _467
REMARK  183  A    between atoms: _469  and  _471
REMARK  184  A    between atoms: _471  and  _472
REMARK  185  A    between atoms: _471  and  _474
REMARK  186  A    between atoms: _474  and  _475
REMARK  187  A    between atoms: _475  and  _476
REMARK  188  A    between atoms: _479  and  _481
REMARK  189  A    between atoms: _481  and  _482
REMARK  190  A    between atoms: _481  and  _484
REMARK  191  A    between atoms: _486  and  _488
REMARK  192  A    between atoms: _488  and  _489
REMARK  193  A    between atoms: _492  and  _494
REMARK  194  A    between atoms: _494  and  _495
REMARK  195  A    between atoms: _494  and  _497
REMARK  196  A    between atoms: _499  and  _501
REMARK  197  A    between atoms: _501  and  _502
REMARK  198  A    between atoms: _505  and  _507
REMARK  199  A    between atoms: _507  and  _508
REMARK  200  A    between atoms: _507  and  _510
REMARK  201  A    between atoms: _510  and  _511
REMARK  202  A    between atoms: _514  and  _516
REMARK  203  A    between atoms: _516  and  _517
REMARK  204  A    between atoms: _516  and  _519
REMARK  205  A    between atoms: _519  and  _520
REMARK  206  A    between atoms: _523  and  _525
REMARK  207  A    between atoms: _525  and  _526
REMARK  208  A    between atoms: _525  and  _528
REMARK  209  A    between atoms: _528  and  _529
REMARK  210  A    between atoms: _534  and  _535
REMARK  211  A    between atoms: _537  and  _539
REMARK  212  A    between atoms: _539  and  _540
REMARK  213  A    between atoms: _539  and  _542
REMARK  214  A    between atoms: _545  and  _547
REMARK  215  A    between atoms: _547  and  _548
REMARK  216  A    between atoms: _547  and  _550
REMARK  217  A    between atoms: _550  and  _551
REMARK  218  A    between atoms: _557  and  _559
REMARK  219  A    between atoms: _559  and  _560
REMARK  220  A    between atoms: _559  and  _562
REMARK  221  A    between atoms: _562  and  _563
REMARK  222  A    between atoms: _565  and  _567
REMARK  223  A    between atoms: _567  and  _568
REMARK  224  A    between atoms: _567  and  _570
REMARK  225  A    between atoms: _572  and  _574
REMARK  226  A    between atoms: _574  and  _575
REMARK  227  A    between atoms: _574  and  _577
REMARK  228  A    between atoms: _577  and  _578
REMARK  229  A    between atoms: _583  and  _584
REMARK                            x       y       z     vdW  Elec       q    Type
REMARK                         _______ _______ _______ _____ _____    ______ ____
ROOT
ATOM      1  C   ALA A   5      18.351  46.977   9.709  0.00  0.00    +0.241 C 
ATOM      2  O   ALA A   5      19.263  47.801   9.833  0.00  0.00    -0.273 OA
ATOM      3  N   MET A   6      17.066  47.318   9.715  0.00  0.00    -0.297 N 
ATOM      4  H   MET A   6      16.339  46.578   9.644  0.00  0.00    +0.150 HD
ENDROOT
BRANCH   1   5
ATOM      5  CA  ALA A   5      18.663  45.493   9.521  0.00  0.00    +0.149 C 
ATOM      6  CB  ALA A   5      18.652  45.135   8.035  0.00  0.00    +0.031 C 
BRANCH   5   9
ATOM      7  C   LEU A   4      18.192  43.853  11.274  0.00  0.00    +0.241 C 
ATOM      8  O   LEU A   4      19.365  43.902  11.669  0.00  0.00    -0.273 OA
ATOM      9  N   ALA A   5      17.751  44.611  10.276  0.00  0.00    -0.297 N 
ATOM     10  H   ALA A   5      16.743  44.582  10.021  0.00  0.00    +0.150 HD
BRANCH   7  11
ATOM     11  CA  LEU A   4      17.189  42.890  11.935  0.00  0.00    +0.149 C 
BRANCH  11  13
ATOM     12  C   LEU A   3      16.016  41.994   9.949  0.00  0.00    +0.241 C 
ATOM     13  N   LEU A   4      15.985  42.615  11.135  0.00  0.00    -0.297 N 
ATOM     14  H   LEU A   4      15.063  42.918  11.510  0.00  0.00    +0.150 HD
ATOM     15  O   LEU A   3      17.048  41.801   9.296  0.00  0.00    -0.273 OA
BRANCH  12  16
ATOM     16  CA  LEU A   3      14.672  41.519   9.430  0.00  0.00    +0.149 C 
BRANCH  16  19
ATOM     17  C   THR A   2      13.355  42.820   7.834  0.00  0.00    +0.243 C 
ATOM     18  O   THR A   2      12.567  43.188   8.694  0.00  0.00    -0.273 OA
ATOM     19  N   LEU A   3      14.410  42.051   8.093  0.00  0.00    -0.297 N 
ATOM     20  H   LEU A   3      15.068  41.821   7.321  0.00  0.00    +0.150 HD
BRANCH  17  21
ATOM     21  CA  THR A   2      13.162  43.220   6.372  0.00  0.00    +0.176 C 
BRANCH  21  23
ATOM     22  C   LEU A   1      11.788  42.543   4.484  0.00  0.00    +0.238 C 
ATOM     23  N   THR A   2      11.917  42.687   5.805  0.00  0.00    -0.295 N 
ATOM     24  H   THR A   2      11.133  42.421   6.434  0.00  0.00    +0.150 HD
ATOM     25  O   LEU A   1      12.639  42.921   3.685  0.00  0.00    -0.274 OA
BRANCH  22  26
ATOM     26  CA  LEU A   1      10.505  41.897   3.969  0.00  0.00    +0.145 C 
BRANCH  26  27
ATOM     27  N   LEU A   1      10.082  42.628   2.781  0.00  0.00    -0.238 NA
ATOM     28  H   LEU A   1      10.685  42.575   1.936  0.00  0.00    +0.142 HD
ENDBRANCH  26  27
BRANCH  26  29
ATOM     29  CB  LEU A   1      10.786  40.443   3.576  0.00  0.00    +0.026 C 
BRANCH  29  30
ATOM     30  CG  LEU A   1      11.275  39.470   4.647  0.00  0.00    +0.002 C 
ATOM     31  CD2 LEU A   1      10.168  39.262   5.707  0.00  0.00    +0.000 C 
ATOM     32  CD1 LEU A   1      11.705  38.131   3.987  0.00  0.00    +0.000 C 
ENDBRANCH  29  30
ENDBRANCH  26  29
ENDBRANCH  22  26
ENDBRANCH  21  23
BRANCH  21  33
ATOM     33  CB  THR A   2      13.322  44.766   6.140  0.00  0.00    +0.137 C 
ATOM     34  CG2 THR A   2      12.261  45.592   6.910  0.00  0.00    +0.034 C 
BRANCH  33  35
ATOM     35  OG1 THR A   2      14.643  45.182   6.515  0.00  0.00    -0.382 OA
ATOM     36  HG1 THR A   2      14.736  46.156   6.366  0.00  0.00    +0.210 HD
ENDBRANCH  33  35
ENDBRANCH  21  33
ENDBRANCH  17  21
ENDBRANCH  16  19
BRANCH  16  37
ATOM     37  CB  LEU A   3      14.643  39.974   9.443  0.00  0.00    +0.029 C 
BRANCH  37  38
ATOM     38  CG  LEU A   3      13.290  39.255   9.466  0.00  0.00    +0.002 C 
ATOM     39  CD2 LEU A   3      13.470  37.758   9.774  0.00  0.00    +0.000 C 
ATOM     40  CD1 LEU A   3      12.579  39.422   8.157  0.00  0.00    +0.000 C 
ENDBRANCH  37  38
ENDBRANCH  16  37
ENDBRANCH  12  16
ENDBRANCH  11  13
BRANCH  11  41
ATOM     41  CB  LEU A   4      17.890  41.570  12.324  0.00  0.00    +0.029 C 
BRANCH  41  42
ATOM     42  CG  LEU A   4      17.008  40.467  12.948  0.00  0.00    +0.002 C 
ATOM     43  CD2 LEU A   4      16.341  40.926  14.248  0.00  0.00    +0.000 C 
ATOM     44  CD1 LEU A   4      17.810  39.172  13.188  0.00  0.00    +0.000 C 
ENDBRANCH  41  42
ENDBRANCH  11  41
ENDBRANCH   7  11
ENDBRANCH   5   9
ENDBRANCH   1   5
BRANCH   3  45
ATOM     45  CA  MET A   6      16.658  48.725   9.820  0.00  0.00    +0.149 C 
BRANCH  45  46
ATOM     46  C   MET A   6      17.268  49.405  11.053  0.00  0.00    +0.241 C 
ATOM     47  N   GLU A   7      17.253  48.707  12.188  0.00  0.00    -0.297 N 
ATOM     48  H   GLU A   7      16.864  47.742  12.186  0.00  0.00    +0.150 HD
ATOM     49  O   MET A   6      17.748  50.537  10.972  0.00  0.00    -0.273 OA
BRANCH  47  50
ATOM     50  CA  GLU A   7      17.774  49.270  13.445  0.00  0.00    +0.149 C 
BRANCH  50  51
ATOM     51  C   GLU A   7      19.307  49.405  13.428  0.00  0.00    +0.241 C 
ATOM     52  O   GLU A   7      19.883  50.120  14.258  0.00  0.00    -0.273 OA
ATOM     53  N   CYS A   8      19.953  48.724  12.486  0.00  0.00    -0.296 N 
ATOM     54  H   CYS A   8      19.408  48.082  11.876  0.00  0.00    +0.150 HD
BRANCH  53  55
ATOM     55  CA  CYS A   8      21.406  48.838  12.268  0.00  0.00    +0.160 C 
BRANCH  55  56
ATOM     56  C   CYS A   8      21.725  49.962  11.285  0.00  0.00    +0.242 C 
ATOM     57  O   CYS A   8      22.741  50.656  11.420  0.00  0.00    -0.273 OA
ATOM     58  N   ALA A   9      20.858  50.122  10.289  0.00  0.00    -0.297 N 
ATOM     59  H   ALA A   9      20.018  49.509  10.251  0.00  0.00    +0.150 HD
BRANCH  58  60
ATOM     60  CA  ALA A   9      21.044  51.129   9.245  0.00  0.00    +0.149 C 
ATOM     61  CB  ALA A   9      20.167  50.798   8.036  0.00  0.00    +0.031 C 
BRANCH  60  62
ATOM     62  C   ALA A   9      20.749  52.548   9.713  0.00  0.00    +0.241 C 
ATOM     63  N   CYS A  10      19.854  52.674  10.697  0.00  0.00    -0.297 N 
ATOM     64  H   CYS A  10      19.508  51.814  11.168  0.00  0.00    +0.150 HD
ATOM     65  O   ALA A   9      21.307  53.508   9.161  0.00  0.00    -0.273 OA
BRANCH  63  66
ATOM     66  CA  CYS A  10      19.339  53.971  11.141  0.00  0.00    +0.149 C 
BRANCH  66  67
ATOM     67  C   CYS A  10      19.947  54.409  12.471  0.00  0.00    +0.228 C 
ATOM     68  O   CYS A  10      19.963  53.643  13.442  0.00  0.00    -0.286 OA
ENDBRANCH  66  67
BRANCH  66  69
ATOM     69  CB  CYS A  10      17.813  53.905  11.257  0.00  0.00    +0.096 C 
ATOM     70  SG  CYS A  10      16.996  53.601   9.684  0.00  0.00    -0.080 S 
ENDBRANCH  66  69
ENDBRANCH  63  66
ENDBRANCH  60  62
ENDBRANCH  58  60
ENDBRANCH  55  56
BRANCH  55  71
ATOM     71  CB  CYS A   8      21.972  47.520  11.737  0.00  0.00    +0.098 C 
ATOM     72  SG  CYS A   8      21.719  46.150  12.887  0.00  0.00    -0.080 S 
ENDBRANCH  55  71
ENDBRANCH  53  55
ENDBRANCH  50  51
BRANCH  50  73
ATOM     73  CB  GLU A   7      17.288  48.468  14.670  0.00  0.00    +0.041 C 
BRANCH  73  74
ATOM     74  CG  GLU A   7      17.714  46.993  14.745  0.00  0.00    +0.116 C 
BRANCH  74  75
ATOM     75  CD  GLU A   7      16.750  46.022  14.025  0.00  0.00    +0.365 C 
ATOM     76  OE2 GLU A   7      16.559  44.900  14.546  0.00  0.00    -0.246 OA
ATOM     77  OE1 GLU A   7      16.208  46.367  12.949  0.00  0.00    -0.246 OA
ENDBRANCH  74  75
ENDBRANCH  73  74
ENDBRANCH  50  73
ENDBRANCH  47  50
ENDBRANCH  45  46
BRANCH  45  78
ATOM     78  CB  MET A   6      15.127  48.840   9.838  0.00  0.00    +0.041 C 
BRANCH  78  79
ATOM     79  CG  MET A   6      14.478  48.473   8.514  0.00  0.00    +0.060 C 
BRANCH  79  80
ATOM     80  SD  MET A   6      14.431  49.894   7.397  0.00  0.00    -0.139 S 
ATOM     81  CE  MET A   6      13.028  50.775   8.095  0.00  0.00    +0.069 C 
ENDBRANCH  79  80
ENDBRANCH  78  79
ENDBRANCH  45  78
ENDBRANCH   3  45
TORSDOF 36
REMARK  Name = ../refined-set-2016/2a14/2a14_pocket.pdb
REMARK  229 active torsions:
REMARK  status: ('A' for Active; 'I' for Inactive)
REMARK    1  A    between atoms: _1  and  _5
REMARK    2  A    between atoms: _5  and  _6
REMARK    3  A    between atoms: _5  and  _8
REMARK    4  A    between atoms: _8  and  _9
REMARK    5  A    between atoms: _15  and  _17
REMARK    6  A    between atoms: _17  and  _18
REMARK    7  A    between atoms: _17  and  _20
REMARK    8  A    between atoms: _20  and  _21
REMARK    9  A    between atoms: _24  and  _26
REMARK   10  A    between atoms: _26  and  _27
REMARK   11  A    between atoms: _29  and  _31
REMARK   12  A    between atoms: _31  and  _32
REMARK   13  A    between atoms: _34  and  _36
REMARK   14  A    between atoms: _36  and  _37
REMARK   15  A    between atoms: _36  and  _39
REMARK   16  A    between atoms: _39  and  _40
REMARK   17  A    between atoms: _45  and  _46
REMARK   18  A    between atoms: _48  and  _50
REMARK   19  A    between atoms: _50  and  _51
REMARK   20  A    between atoms: _50  and  _53
REMARK   21  A    between atoms: _53  and  _54
REMARK   22  A    between atoms: _54  and  _55
REMARK   23  A    between atoms: _60  and  _62
REMARK   24  A    between atoms: _62  and  _63
REMARK   25  A    between atoms: _62  and  _65
REMARK   26  A    between atoms: _65  and  _66
REMARK   27  A    between atoms: _73  and  _74
REMARK   28  A    between atoms: _79  and  _81
REMARK   29  A    between atoms: _81  and  _82
REMARK   30  A    between atoms: _81  and  _84
REMARK   31  A    between atoms: _84  and  _85
REMARK   32  A    between atoms: _90  and  _91
REMARK   33  A    between atoms: _93  and  _95
REMARK   34  A    between atoms: _95  and  _96
REMARK   35  A    between atoms: _95  and  _98
REMARK   36  A    between atoms: _98  and  _99
REMARK   37  A    between atoms: _102  and  _104
REMARK   38  A    between atoms: _104  and  _105
REMARK   39  A    between atoms: _104  and  _107
REMARK   40  A    between atoms: _107  and  _108
REMARK   41  A    between atoms: _113  and  _114
REMARK   42  A    between atoms: _116  and  _118
REMARK   43  A    between atoms: _118  and  _119
REMARK   44  A    between atoms: _118  and  _121
REMARK   45  A    between atoms: _121  and  _122
REMARK   46  A    between atoms: _127  and  _128
REMARK   47  A    between atoms: _130  and  _132
REMARK   48  A    between atoms: _132  and  _133
REMARK   49  A    between atoms: _132  and  _135
REMARK   50  A    between atoms: _135  and  _136
REMARK   51  A    between atoms: _139  and  _141
REMARK   52  A    between atoms: _141  and  _142
REMARK   53  A    between atoms: _141  and  _144
REMARK   54  A    between atoms: _144  and  _145
REMARK   55  A    between atoms: _150  and  _152
REMARK   56  A    between atoms: _152  and  _153
REMARK   57  A    between atoms: _152  and  _155
REMARK   58  A    between atoms: _155  and  _156
REMARK   59  A    between atoms: _159  and  _161
REMARK   60  A    between atoms: _161  and  _162
REMARK   61  A    between atoms: _161  and  _164
REMARK   62  A    between atoms: _164  and  _165
REMARK   63  A    between atoms: _168  and  _170
REMARK   64  A    between atoms: _170  and  _171
REMARK   65  A    between atoms: _170  and  _173
REMARK   66  A    between atoms: _173  and  _174
REMARK   67  A    between atoms: _177  and  _179
REMARK   68  A    between atoms: _179  and  _180
REMARK   69  A    between atoms: _182  and  _184
REMARK   70  A    between atoms: _184  and  _185
REMARK   71  A    between atoms: _184  and  _187
REMARK   72  A    between atoms: _187  and  _188
REMARK   73  A    between atoms: _190  and  _192
REMARK   74  A    between atoms: _192  and  _193
REMARK   75  A    between atoms: _196  and  _197
REMARK   76  A    between atoms: _202  and  _204
REMARK   77  A    between atoms: _204  and  _205
REMARK   78  A    between atoms: _204  and  _207
REMARK   79  A    between atoms: _207  and  _208
REMARK   80  A    between atoms: _211  and  _213
REMARK   81  A    between atoms: _213  and  _214
REMARK   82  A    between atoms: _213  and  _216
REMARK   83  A    between atoms: _216  and  _217
REMARK   84  A    between atoms: _220  and  _222
REMARK   85  A    between atoms: _222  and  _223
REMARK   86  A    between atoms: _222  and  _225
REMARK   87  A    between atoms: _225  and  _226
REMARK   88  A    between atoms: _231  and  _232
REMARK   89  A    between atoms: _234  and  _236
REMARK   90  A    between atoms: _236  and  _237
REMARK   91  A    between atoms: _236  and  _239
REMARK   92  A    between atoms: _239  and  _240
REMARK   93  A    between atoms: _240  and  _241
REMARK   94  A    between atoms: _246  and  _248
REMARK   95  A    between atoms: _248  and  _249
REMARK   96  A    between atoms: _248  and  _251
REMARK   97  A    between atoms: _251  and  _252
REMARK   98  A    between atoms: _254  and  _256
REMARK   99  A    between atoms: _256  and  _257
REMARK  100  A    between atoms: _256  and  _259
REMARK  101  A    between atoms: _259  and  _260
REMARK  102  A    between atoms: _263  and  _265
REMARK  103  A    between atoms: _265  and  _266
REMARK  104  A    between atoms: _265  and  _268
REMARK  105  A    between atoms: _268  and  _269
REMARK  106  A    between atoms: _275  and  _277
REMARK  107  A    between atoms: _277  and  _278
REMARK  108  A    between atoms: _277  and  _280
REMARK  109  A    between atoms: _280  and  _281
REMARK  110  A    between atoms: _284  and  _286
REMARK  111  A    between atoms: _286  and  _287
REMARK  112  A    between atoms: _286  and  _289
REMARK  113  A    between atoms: _289  and  _290
REMARK  114  A    between atoms: _293  and  _295
REMARK  115  A    between atoms: _295  and  _296
REMARK  116  A    between atoms: _295  and  _298
REMARK  117  A    between atoms: _298  and  _299
REMARK  118  A    between atoms: _299  and  _300
REMARK  119  A    between atoms: _300  and  _301
REMARK  120  A    between atoms: _310  and  _312
REMARK  121  A    between atoms: _312  and  _313
REMARK  122  A    between atoms: _312  and  _315
REMARK  123  A    between atoms: _315  and  _316
REMARK  124  A    between atoms: _321  and  _323
REMARK  125  A    between atoms: _323  and  _324
REMARK  126  A    between atoms: _323  and  _326
REMARK  127  A    between atoms: _326  and  _327
REMARK  128  A    between atoms: _327  and  _328
REMARK  129  A    between atoms: _328  and  _329
REMARK  130  A    between atoms: _338  and  _340
REMARK  131  A    between atoms: _340  and  _341
REMARK  132  A    between atoms: _340  and  _343
REMARK  133  A    between atoms: _343  and  _344
REMARK  134  A    between atoms: _354  and  _356
REMARK  135  A    between atoms: _356  and  _357
REMARK  136  A    between atoms: _356  and  _359
REMARK  137  A    between atoms: _359  and  _360
REMARK  138  A    between atoms: _360  and  _361
REMARK  139  A    between atoms: _361  and  _362
REMARK  140  A    between atoms: _362  and  _363
REMARK  141  A    between atoms: _367  and  _369
REMARK  142  A    between atoms: _369  and  _370
REMARK  143  A    between atoms: _369  and  _372
REMARK  144  A    between atoms: _374  and  _376
REMARK  145  A    between atoms: _376  and  _377
REMARK  146  A    between atoms: _376  and  _379
REMARK  147  A    between atoms: _379  and  _380
REMARK  148  A    between atoms: _383  and  _385
REMARK  149  A    between atoms: _385  and  _386
REMARK  150  A    between atoms: _385  and  _388
REMARK  151  A    between atoms: _391  and  _393
REMARK  152  A    between atoms: _393  and  _394
REMARK  153  A    between atoms: _393  and  _396
REMARK  154  A    between atoms: _396  and  _397
REMARK  155  A    between atoms: _402  and  _404
REMARK  156  A    between atoms: _404  and  _405
REMARK  157  A    between atoms: _404  and  _407
REMARK  158  A    between atoms: _407  and  _408
REMARK  159  A    between atoms: _412  and  _413
REMARK  160  A    between atoms: _418  and  _420
REMARK  161  A    between atoms: _420  and  _421
REMARK  162  A    between atoms: _420  and  _423
REMARK  163  A    between atoms: _423  and  _424
REMARK  164  A    between atoms: _427  and  _429
REMARK  165  A    between atoms: _429  and  _430
REMARK  166  A    between atoms: _429  and  _432
REMARK  167  A    between atoms: _432  and  _433
REMARK  168  A    between atoms: _436  and  _438
REMARK  169  A    between atoms: _438  and  _439
REMARK  170  A    between atoms: _438  and  _441
REMARK  171  A    between atoms: _441  and  _442
REMARK  172  A    between atoms: _445  and  _447
REMARK  173  A    between atoms: _447  and  _448
REMARK  174  A    between atoms: _447  and  _450
REMARK  175  A    between atoms: _450  and  _451
REMARK  176  A    between atoms: _454  and  _456
REMARK  177  A    between atoms: _456  and  _457
REMARK  178  A    between atoms: _460  and  _462
REMARK  179  A    between atoms: _462  and  _463
REMARK  180  A    between atoms: _462  and  _465
REMARK  181  A    between atoms: _465  and  _466
REMARK  182  A    between atoms: _466  and  _467
REMARK  183  A    between atoms: _469  and  _471
REMARK  184  A    between atoms: _471  and  _472
REMARK  185  A    between atoms: _471  and  _474
REMARK  186  A    between atoms: _474  and  _475
REMARK  187  A    between atoms: _475  and  _476
REMARK  188  A    between atoms: _479  and  _481
REMARK  189  A    between atoms: _481  and  _482
REMARK  190  A    between atoms: _481  and  _484
REMARK  191  A    between atoms: _486  and  _488
REMARK  192  A    between atoms: _488  and  _489
REMARK  193  A    between atoms: _492  and  _494
REMARK  194  A    between atoms: _494  and  _495
REMARK  195  A    between atoms: _494  and  _497
REMARK  196  A    between atoms: _499  and  _501
REMARK  197  A    between atoms: _501  and  _502
REMARK  198  A    between atoms: _505  and  _507
REMARK  199  A    between atoms: _507  and  _508
REMARK  200  A    between atoms: _507  and  _510
REMARK  201  A    between atoms: _510  and  _511
REMARK  202  A    between atoms: _514  and  _516
REMARK  203  A    between atoms: _516  and  _517
REMARK  204  A    between atoms: _516  and  _519
REMARK  205  A    between atoms: _519  and  _520
REMARK  206  A    between atoms: _523  and  _525
REMARK  207  A    between atoms: _525  and  _526
REMARK  208  A    between atoms: _525  and  _528
REMARK  209  A    between atoms: _528  and  _529
REMARK  210  A    between atoms: _534  and  _535
REMARK  211  A    between atoms: _537  and  _539
REMARK  212  A    between atoms: _539  and  _540
REMARK  213  A    between atoms: _539  and  _542
REMARK  214  A    between atoms: _545  and  _547
REMARK  215  A    between atoms: _547  and  _548
REMARK  216  A    between atoms: _547  and  _550
REMARK  217  A    between atoms: _550  and  _551
REMARK  218  A    between atoms: _557  and  _559
REMARK  219  A    between atoms: _559  and  _560
REMARK  220  A    between atoms: _559  and  _562
REMARK  221  A    between atoms: _562  and  _563
REMARK  222  A    between atoms: _565  and  _567
REMARK  223  A    between atoms: _567  and  _568
REMARK  224  A    between atoms: _567  and  _570
REMARK  225  A    between atoms: _572  and  _574
REMARK  226  A    between atoms: _574  and  _575
REMARK  227  A    between atoms: _574  and  _577
REMARK  228  A    between atoms: _577  and  _578
REMARK  229  A    between atoms: _583  and  _584
REMARK                            x       y       z     vdW  Elec       q    Type
REMARK                         _______ _______ _______ _____ _____    ______ ____
ROOT
ATOM      1  CA  ALA A   1      13.322  54.572   6.270  0.00  0.00    +0.133 C 
ATOM      2  CB  ALA A   1      14.353  53.788   7.053  0.00  0.00    +0.027 C 
ENDROOT
BRANCH   1   3
ATOM      3  N   ALA A   1      12.977  55.810   6.963  0.00  0.00    -0.239 NA
ATOM      4  H   ALA A   1      13.389  56.002   7.899  0.00  0.00    +0.142 HD
ENDBRANCH   1   3
BRANCH   1   5
ATOM      5  C   ALA A   1      12.070  53.727   6.014  0.00  0.00    +0.224 C 
ATOM      6  O   ALA A   1      11.943  53.116   4.954  0.00  0.00    -0.287 OA
ENDBRANCH   1   5
TORSDOF 2
REMARK  Name = ../refined-set-2016/2a14/2a14_pocket.pdb
REMARK  229 active torsions:
REMARK  status: ('A' for Active; 'I' for Inactive)
REMARK    1  A    between atoms: _1  and  _5
REMARK    2  A    between atoms: _5  and  _6
REMARK    3  A    between atoms: _5  and  _8
REMARK    4  A    between atoms: _8  and  _9
REMARK    5  A    between atoms: _15  and  _17
REMARK    6  A    between atoms: _17  and  _18
REMARK    7  A    between atoms: _17  and  _20
REMARK    8  A    between atoms: _20  and  _21
REMARK    9  A    between atoms: _24  and  _26
REMARK   10  A    between atoms: _26  and  _27
REMARK   11  A    between atoms: _29  and  _31
REMARK   12  A    between atoms: _31  and  _32
REMARK   13  A    between atoms: _34  and  _36
REMARK   14  A    between atoms: _36  and  _37
REMARK   15  A    between atoms: _36  and  _39
REMARK   16  A    between atoms: _39  and  _40
REMARK   17  A    between atoms: _45  and  _46
REMARK   18  A    between atoms: _48  and  _50
REMARK   19  A    between atoms: _50  and  _51
REMARK   20  A    between atoms: _50  and  _53
REMARK   21  A    between atoms: _53  and  _54
REMARK   22  A    between atoms: _54  and  _55
REMARK   23  A    between atoms: _60  and  _62
REMARK   24  A    between atoms: _62  and  _63
REMARK   25  A    between atoms: _62  and  _65
REMARK   26  A    between atoms: _65  and  _66
REMARK   27  A    between atoms: _73  and  _74
REMARK   28  A    between atoms: _79  and  _81
REMARK   29  A    between atoms: _81  and  _82
REMARK   30  A    between atoms: _81  and  _84
REMARK   31  A    between atoms: _84  and  _85
REMARK   32  A    between atoms: _90  and  _91
REMARK   33  A    between atoms: _93  and  _95
REMARK   34  A    between atoms: _95  and  _96
REMARK   35  A    between atoms: _95  and  _98
REMARK   36  A    between atoms: _98  and  _99
REMARK   37  A    between atoms: _102  and  _104
REMARK   38  A    between atoms: _104  and  _105
REMARK   39  A    between atoms: _104  and  _107
REMARK   40  A    between atoms: _107  and  _108
REMARK   41  A    between atoms: _113  and  _114
REMARK   42  A    between atoms: _116  and  _118
REMARK   43  A    between atoms: _118  and  _119
REMARK   44  A    between atoms: _118  and  _121
REMARK   45  A    between atoms: _121  and  _122
REMARK   46  A    between atoms: _127  and  _128
REMARK   47  A    between atoms: _130  and  _132
REMARK   48  A    between atoms: _132  and  _133
REMARK   49  A    between atoms: _132  and  _135
REMARK   50  A    between atoms: _135  and  _136
REMARK   51  A    between atoms: _139  and  _141
REMARK   52  A    between atoms: _141  and  _142
REMARK   53  A    between atoms: _141  and  _144
REMARK   54  A    between atoms: _144  and  _145
REMARK   55  A    between atoms: _150  and  _152
REMARK   56  A    between atoms: _152  and  _153
REMARK   57  A    between atoms: _152  and  _155
REMARK   58  A    between atoms: _155  and  _156
REMARK   59  A    between atoms: _159  and  _161
REMARK   60  A    between atoms: _161  and  _162
REMARK   61  A    between atoms: _161  and  _164
REMARK   62  A    between atoms: _164  and  _165
REMARK   63  A    between atoms: _168  and  _170
REMARK   64  A    between atoms: _170  and  _171
REMARK   65  A    between atoms: _170  and  _173
REMARK   66  A    between atoms: _173  and  _174
REMARK   67  A    between atoms: _177  and  _179
REMARK   68  A    between atoms: _179  and  _180
REMARK   69  A    between atoms: _182  and  _184
REMARK   70  A    between atoms: _184  and  _185
REMARK   71  A    between atoms: _184  and  _187
REMARK   72  A    between atoms: _187  and  _188
REMARK   73  A    between atoms: _190  and  _192
REMARK   74  A    between atoms: _192  and  _193
REMARK   75  A    between atoms: _196  and  _197
REMARK   76  A    between atoms: _202  and  _204
REMARK   77  A    between atoms: _204  and  _205
REMARK   78  A    between atoms: _204  and  _207
REMARK   79  A    between atoms: _207  and  _208
REMARK   80  A    between atoms: _211  and  _213
REMARK   81  A    between atoms: _213  and  _214
REMARK   82  A    between atoms: _213  and  _216
REMARK   83  A    between atoms: _216  and  _217
REMARK   84  A    between atoms: _220  and  _222
REMARK   85  A    between atoms: _222  and  _223
REMARK   86  A    between atoms: _222  and  _225
REMARK   87  A    between atoms: _225  and  _226
REMARK   88  A    between atoms: _231  and  _232
REMARK   89  A    between atoms: _234  and  _236
REMARK   90  A    between atoms: _236  and  _237
REMARK   91  A    between atoms: _236  and  _239
REMARK   92  A    between atoms: _239  and  _240
REMARK   93  A    between atoms: _240  and  _241
REMARK   94  A    between atoms: _246  and  _248
REMARK   95  A    between atoms: _248  and  _249
REMARK   96  A    between atoms: _248  and  _251
REMARK   97  A    between atoms: _251  and  _252
REMARK   98  A    between atoms: _254  and  _256
REMARK   99  A    between atoms: _256  and  _257
REMARK  100  A    between atoms: _256  and  _259
REMARK  101  A    between atoms: _259  and  _260
REMARK  102  A    between atoms: _263  and  _265
REMARK  103  A    between atoms: _265  and  _266
REMARK  104  A    between atoms: _265  and  _268
REMARK  105  A    between atoms: _268  and  _269
REMARK  106  A    between atoms: _275  and  _277
REMARK  107  A    between atoms: _277  and  _278
REMARK  108  A    between atoms: _277  and  _280
REMARK  109  A    between atoms: _280  and  _281
REMARK  110  A    between atoms: _284  and  _286
REMARK  111  A    between atoms: _286  and  _287
REMARK  112  A    between atoms: _286  and  _289
REMARK  113  A    between atoms: _289  and  _290
REMARK  114  A    between atoms: _293  and  _295
REMARK  115  A    between atoms: _295  and  _296
REMARK  116  A    between atoms: _295  and  _298
REMARK  117  A    between atoms: _298  and  _299
REMARK  118  A    between atoms: _299  and  _300
REMARK  119  A    between atoms: _300  and  _301
REMARK  120  A    between atoms: _310  and  _312
REMARK  121  A    between atoms: _312  and  _313
REMARK  122  A    between atoms: _312  and  _315
REMARK  123  A    between atoms: _315  and  _316
REMARK  124  A    between atoms: _321  and  _323
REMARK  125  A    between atoms: _323  and  _324
REMARK  126  A    between atoms: _323  and  _326
REMARK  127  A    between atoms: _326  and  _327
REMARK  128  A    between atoms: _327  and  _328
REMARK  129  A    between atoms: _328  and  _329
REMARK  130  A    between atoms: _338  and  _340
REMARK  131  A    between atoms: _340  and  _341
REMARK  132  A    between atoms: _340  and  _343
REMARK  133  A    between atoms: _343  and  _344
REMARK  134  A    between atoms: _354  and  _356
REMARK  135  A    between atoms: _356  and  _357
REMARK  136  A    between atoms: _356  and  _359
REMARK  137  A    between atoms: _359  and  _360
REMARK  138  A    between atoms: _360  and  _361
REMARK  139  A    between atoms: _361  and  _362
REMARK  140  A    between atoms: _362  and  _363
REMARK  141  A    between atoms: _367  and  _369
REMARK  142  A    between atoms: _369  and  _370
REMARK  143  A    between atoms: _369  and  _372
REMARK  144  A    between atoms: _374  and  _376
REMARK  145  A    between atoms: _376  and  _377
REMARK  146  A    between atoms: _376  and  _379
REMARK  147  A    between atoms: _379  and  _380
REMARK  148  A    between atoms: _383  and  _385
REMARK  149  A    between atoms: _385  and  _386
REMARK  150  A    between atoms: _385  and  _388
REMARK  151  A    between atoms: _391  and  _393
REMARK  152  A    between atoms: _393  and  _394
REMARK  153  A    between atoms: _393  and  _396
REMARK  154  A    between atoms: _396  and  _397
REMARK  155  A    between atoms: _402  and  _404
REMARK  156  A    between atoms: _404  and  _405
REMARK  157  A    between atoms: _404  and  _407
REMARK  158  A    between atoms: _407  and  _408
REMARK  159  A    between atoms: _412  and  _413
REMARK  160  A    between atoms: _418  and  _420
REMARK  161  A    between atoms: _420  and  _421
REMARK  162  A    between atoms: _420  and  _423
REMARK  163  A    between atoms: _423  and  _424
REMARK  164  A    between atoms: _427  and  _429
REMARK  165  A    between atoms: _429  and  _430
REMARK  166  A    between atoms: _429  and  _432
REMARK  167  A    between atoms: _432  and  _433
REMARK  168  A    between atoms: _436  and  _438
REMARK  169  A    between atoms: _438  and  _439
REMARK  170  A    between atoms: _438  and  _441
REMARK  171  A    between atoms: _441  and  _442
REMARK  172  A    between atoms: _445  and  _447
REMARK  173  A    between atoms: _447  and  _448
REMARK  174  A    between atoms: _447  and  _450
REMARK  175  A    between atoms: _450  and  _451
REMARK  176  A    between atoms: _454  and  _456
REMARK  177  A    between atoms: _456  and  _457
REMARK  178  A    between atoms: _460  and  _462
REMARK  179  A    between atoms: _462  and  _463
REMARK  180  A    between atoms: _462  and  _465
REMARK  181  A    between atoms: _465  and  _466
REMARK  182  A    between atoms: _466  and  _467
REMARK  183  A    between atoms: _469  and  _471
REMARK  184  A    between atoms: _471  and  _472
REMARK  185  A    between atoms: _471  and  _474
REMARK  186  A    between atoms: _474  and  _475
REMARK  187  A    between atoms: _475  and  _476
REMARK  188  A    between atoms: _479  and  _481
REMARK  189  A    between atoms: _481  and  _482
REMARK  190  A    between atoms: _481  and  _484
REMARK  191  A    between atoms: _486  and  _488
REMARK  192  A    between atoms: _488  and  _489
REMARK  193  A    between atoms: _492  and  _494
REMARK  194  A    between atoms: _494  and  _495
REMARK  195  A    between atoms: _494  and  _497
REMARK  196  A    between atoms: _499  and  _501
REMARK  197  A    between atoms: _501  and  _502
REMARK  198  A    between atoms: _505  and  _507
REMARK  199  A    between atoms: _507  and  _508
REMARK  200  A    between atoms: _507  and  _510
REMARK  201  A    between atoms: _510  and  _511
REMARK  202  A    between atoms: _514  and  _516
REMARK  203  A    between atoms: _516  and  _517
REMARK  204  A    between atoms: _516  and  _519
REMARK  205  A    between atoms: _519  and  _520
REMARK  206  A    between atoms: _523  and  _525
REMARK  207  A    between atoms: _525  and  _526
REMARK  208  A    between atoms: _525  and  _528
REMARK  209  A    between atoms: _528  and  _529
REMARK  210  A    between atoms: _534  and  _535
REMARK  211  A    between atoms: _537  and  _539
REMARK  212  A    between atoms: _539  and  _540
REMARK  213  A    between atoms: _539  and  _542
REMARK  214  A    between atoms: _545  and  _547
REMARK  215  A    between atoms: _547  and  _548
REMARK  216  A    between atoms: _547  and  _550
REMARK  217  A    between atoms: _550  and  _551
REMARK  218  A    between atoms: _557  and  _559
REMARK  219  A    between atoms: _559  and  _560
REMARK  220  A    between atoms: _559  and  _562
REMARK  221  A    between atoms: _562  and  _563
REMARK  222  A    between atoms: _565  and  _567
REMARK  223  A    between atoms: _567  and  _568
REMARK  224  A    between atoms: _567  and  _570
REMARK  225  A    between atoms: _572  and  _574
REMARK  226  A    between atoms: _574  and  _575
REMARK  227  A    between atoms: _574  and  _577
REMARK  228  A    between atoms: _577  and  _578
REMARK  229  A    between atoms: _583  and  _584
REMARK                            x       y       z     vdW  Elec       q    Type
REMARK                         _______ _______ _______ _____ _____    ______ ____
ROOT
ATOM      1  CA  LEU A   1      10.227  50.865   2.170  0.00  0.00    +0.133 C 
ENDROOT
BRANCH   1   2
ATOM      2  N   LEU A   1      10.662  52.239   2.459  0.00  0.00    -0.239 NA
ATOM      3  H   LEU A   1      10.847  52.527   3.441  0.00  0.00    +0.142 HD
ENDBRANCH   1   2
BRANCH   1   4
ATOM      4  C   LEU A   1       8.810  50.872   1.611  0.00  0.00    +0.224 C 
ATOM      5  O   LEU A   1       8.511  50.119   0.689  0.00  0.00    -0.287 OA
ENDBRANCH   1   4
BRANCH   1   6
ATOM      6  CB  LEU A   1      10.300  49.961   3.413  0.00  0.00    +0.025 C 
BRANCH   6   7
ATOM      7  CG  LEU A   1      11.675  49.785   4.055  0.00  0.00    +0.002 C 
ATOM      8  CD2 LEU A   1      11.633  48.774   5.199  0.00  0.00    +0.000 C 
ATOM      9  CD1 LEU A   1      12.709  49.378   3.035  0.00  0.00    +0.000 C 
ENDBRANCH   6   7
ENDBRANCH   1   6
TORSDOF 4
REMARK  Name = ../refined-set-2016/2a14/2a14_pocket.pdb
REMARK  229 active torsions:
REMARK  status: ('A' for Active; 'I' for Inactive)
REMARK    1  A    between atoms: _1  and  _5
REMARK    2  A    between atoms: _5  and  _6
REMARK    3  A    between atoms: _5  and  _8
REMARK    4  A    between atoms: _8  and  _9
REMARK    5  A    between atoms: _15  and  _17
REMARK    6  A    between atoms: _17  and  _18
REMARK    7  A    between atoms: _17  and  _20
REMARK    8  A    between atoms: _20  and  _21
REMARK    9  A    between atoms: _24  and  _26
REMARK   10  A    between atoms: _26  and  _27
REMARK   11  A    between atoms: _29  and  _31
REMARK   12  A    between atoms: _31  and  _32
REMARK   13  A    between atoms: _34  and  _36
REMARK   14  A    between atoms: _36  and  _37
REMARK   15  A    between atoms: _36  and  _39
REMARK   16  A    between atoms: _39  and  _40
REMARK   17  A    between atoms: _45  and  _46
REMARK   18  A    between atoms: _48  and  _50
REMARK   19  A    between atoms: _50  and  _51
REMARK   20  A    between atoms: _50  and  _53
REMARK   21  A    between atoms: _53  and  _54
REMARK   22  A    between atoms: _54  and  _55
REMARK   23  A    between atoms: _60  and  _62
REMARK   24  A    between atoms: _62  and  _63
REMARK   25  A    between atoms: _62  and  _65
REMARK   26  A    between atoms: _65  and  _66
REMARK   27  A    between atoms: _73  and  _74
REMARK   28  A    between atoms: _79  and  _81
REMARK   29  A    between atoms: _81  and  _82
REMARK   30  A    between atoms: _81  and  _84
REMARK   31  A    between atoms: _84  and  _85
REMARK   32  A    between atoms: _90  and  _91
REMARK   33  A    between atoms: _93  and  _95
REMARK   34  A    between atoms: _95  and  _96
REMARK   35  A    between atoms: _95  and  _98
REMARK   36  A    between atoms: _98  and  _99
REMARK   37  A    between atoms: _102  and  _104
REMARK   38  A    between atoms: _104  and  _105
REMARK   39  A    between atoms: _104  and  _107
REMARK   40  A    between atoms: _107  and  _108
REMARK   41  A    between atoms: _113  and  _114
REMARK   42  A    between atoms: _116  and  _118
REMARK   43  A    between atoms: _118  and  _119
REMARK   44  A    between atoms: _118  and  _121
REMARK   45  A    between atoms: _121  and  _122
REMARK   46  A    between atoms: _127  and  _128
REMARK   47  A    between atoms: _130  and  _132
REMARK   48  A    between atoms: _132  and  _133
REMARK   49  A    between atoms: _132  and  _135
REMARK   50  A    between atoms: _135  and  _136
REMARK   51  A    between atoms: _139  and  _141
REMARK   52  A    between atoms: _141  and  _142
REMARK   53  A    between atoms: _141  and  _144
REMARK   54  A    between atoms: _144  and  _145
REMARK   55  A    between atoms: _150  and  _152
REMARK   56  A    between atoms: _152  and  _153
REMARK   57  A    between atoms: _152  and  _155
REMARK   58  A    between atoms: _155  and  _156
REMARK   59  A    between atoms: _159  and  _161
REMARK   60  A    between atoms: _161  and  _162
REMARK   61  A    between atoms: _161  and  _164
REMARK   62  A    between atoms: _164  and  _165
REMARK   63  A    between atoms: _168  and  _170
REMARK   64  A    between atoms: _170  and  _171
REMARK   65  A    between atoms: _170  and  _173
REMARK   66  A    between atoms: _173  and  _174
REMARK   67  A    between atoms: _177  and  _179
REMARK   68  A    between atoms: _179  and  _180
REMARK   69  A    between atoms: _182  and  _184
REMARK   70  A    between atoms: _184  and  _185
REMARK   71  A    between atoms: _184  and  _187
REMARK   72  A    between atoms: _187  and  _188
REMARK   73  A    between atoms: _190  and  _192
REMARK   74  A    between atoms: _192  and  _193
REMARK   75  A    between atoms: _196  and  _197
REMARK   76  A    between atoms: _202  and  _204
REMARK   77  A    between atoms: _204  and  _205
REMARK   78  A    between atoms: _204  and  _207
REMARK   79  A    between atoms: _207  and  _208
REMARK   80  A    between atoms: _211  and  _213
REMARK   81  A    between atoms: _213  and  _214
REMARK   82  A    between atoms: _213  and  _216
REMARK   83  A    between atoms: _216  and  _217
REMARK   84  A    between atoms: _220  and  _222
REMARK   85  A    between atoms: _222  and  _223
REMARK   86  A    between atoms: _222  and  _225
REMARK   87  A    between atoms: _225  and  _226
REMARK   88  A    between atoms: _231  and  _232
REMARK   89  A    between atoms: _234  and  _236
REMARK   90  A    between atoms: _236  and  _237
REMARK   91  A    between atoms: _236  and  _239
REMARK   92  A    between atoms: _239  and  _240
REMARK   93  A    between atoms: _240  and  _241
REMARK   94  A    between atoms: _246  and  _248
REMARK   95  A    between atoms: _248  and  _249
REMARK   96  A    between atoms: _248  and  _251
REMARK   97  A    between atoms: _251  and  _252
REMARK   98  A    between atoms: _254  and  _256
REMARK   99  A    between atoms: _256  and  _257
REMARK  100  A    between atoms: _256  and  _259
REMARK  101  A    between atoms: _259  and  _260
REMARK  102  A    between atoms: _263  and  _265
REMARK  103  A    between atoms: _265  and  _266
REMARK  104  A    between atoms: _265  and  _268
REMARK  105  A    between atoms: _268  and  _269
REMARK  106  A    between atoms: _275  and  _277
REMARK  107  A    between atoms: _277  and  _278
REMARK  108  A    between atoms: _277  and  _280
REMARK  109  A    between atoms: _280  and  _281
REMARK  110  A    between atoms: _284  and  _286
REMARK  111  A    between atoms: _286  and  _287
REMARK  112  A    between atoms: _286  and  _289
REMARK  113  A    between atoms: _289  and  _290
REMARK  114  A    between atoms: _293  and  _295
REMARK  115  A    between atoms: _295  and  _296
REMARK  116  A    between atoms: _295  and  _298
REMARK  117  A    between atoms: _298  and  _299
REMARK  118  A    between atoms: _299  and  _300
REMARK  119  A    between atoms: _300  and  _301
REMARK  120  A    between atoms: _310  and  _312
REMARK  121  A    between atoms: _312  and  _313
REMARK  122  A    between atoms: _312  and  _315
REMARK  123  A    between atoms: _315  and  _316
REMARK  124  A    between atoms: _321  and  _323
REMARK  125  A    between atoms: _323  and  _324
REMARK  126  A    between atoms: _323  and  _326
REMARK  127  A    between atoms: _326  and  _327
REMARK  128  A    between atoms: _327  and  _328
REMARK  129  A    between atoms: _328  and  _329
REMARK  130  A    between atoms: _338  and  _340
REMARK  131  A    between atoms: _340  and  _341
REMARK  132  A    between atoms: _340  and  _343
REMARK  133  A    between atoms: _343  and  _344
REMARK  134  A    between atoms: _354  and  _356
REMARK  135  A    between atoms: _356  and  _357
REMARK  136  A    between atoms: _356  and  _359
REMARK  137  A    between atoms: _359  and  _360
REMARK  138  A    between atoms: _360  and  _361
REMARK  139  A    between atoms: _361  and  _362
REMARK  140  A    between atoms: _362  and  _363
REMARK  141  A    between atoms: _367  and  _369
REMARK  142  A    between atoms: _369  and  _370
REMARK  143  A    between atoms: _369  and  _372
REMARK  144  A    between atoms: _374  and  _376
REMARK  145  A    between atoms: _376  and  _377
REMARK  146  A    between atoms: _376  and  _379
REMARK  147  A    between atoms: _379  and  _380
REMARK  148  A    between atoms: _383  and  _385
REMARK  149  A    between atoms: _385  and  _386
REMARK  150  A    between atoms: _385  and  _388
REMARK  151  A    between atoms: _391  and  _393
REMARK  152  A    between atoms: _393  and  _394
REMARK  153  A    between atoms: _393  and  _396
REMARK  154  A    between atoms: _396  and  _397
REMARK  155  A    between atoms: _402  and  _404
REMARK  156  A    between atoms: _404  and  _405
REMARK  157  A    between atoms: _404  and  _407
REMARK  158  A    between atoms: _407  and  _408
REMARK  159  A    between atoms: _412  and  _413
REMARK  160  A    between atoms: _418  and  _420
REMARK  161  A    between atoms: _420  and  _421
REMARK  162  A    between atoms: _420  and  _423
REMARK  163  A    between atoms: _423  and  _424
REMARK  164  A    between atoms: _427  and  _429
REMARK  165  A    between atoms: _429  and  _430
REMARK  166  A    between atoms: _429  and  _432
REMARK  167  A    between atoms: _432  and  _433
REMARK  168  A    between atoms: _436  and  _438
REMARK  169  A    between atoms: _438  and  _439
REMARK  170  A    between atoms: _438  and  _441
REMARK  171  A    between atoms: _441  and  _442
REMARK  172  A    between atoms: _445  and  _447
REMARK  173  A    between atoms: _447  and  _448
REMARK  174  A    between atoms: _447  and  _450
REMARK  175  A    between atoms: _450  and  _451
REMARK  176  A    between atoms: _454  and  _456
REMARK  177  A    between atoms: _456  and  _457
REMARK  178  A    between atoms: _460  and  _462
REMARK  179  A    between atoms: _462  and  _463
REMARK  180  A    between atoms: _462  and  _465
REMARK  181  A    between atoms: _465  and  _466
REMARK  182  A    between atoms: _466  and  _467
REMARK  183  A    between atoms: _469  and  _471
REMARK  184  A    between atoms: _471  and  _472
REMARK  185  A    between atoms: _471  and  _474
REMARK  186  A    between atoms: _474  and  _475
REMARK  187  A    between atoms: _475  and  _476
REMARK  188  A    between atoms: _479  and  _481
REMARK  189  A    between atoms: _481  and  _482
REMARK  190  A    between atoms: _481  and  _484
REMARK  191  A    between atoms: _486  and  _488
REMARK  192  A    between atoms: _488  and  _489
REMARK  193  A    between atoms: _492  and  _494
REMARK  194  A    between atoms: _494  and  _495
REMARK  195  A    between atoms: _494  and  _497
REMARK  196  A    between atoms: _499  and  _501
REMARK  197  A    between atoms: _501  and  _502
REMARK  198  A    between atoms: _505  and  _507
REMARK  199  A    between atoms: _507  and  _508
REMARK  200  A    between atoms: _507  and  _510
REMARK  201  A    between atoms: _510  and  _511
REMARK  202  A    between atoms: _514  and  _516
REMARK  203  A    between atoms: _516  and  _517
REMARK  204  A    between atoms: _516  and  _519
REMARK  205  A    between atoms: _519  and  _520
REMARK  206  A    between atoms: _523  and  _525
REMARK  207  A    between atoms: _525  and  _526
REMARK  208  A    between atoms: _525  and  _528
REMARK  209  A    between atoms: _528  and  _529
REMARK  210  A    between atoms: _534  and  _535
REMARK  211  A    between atoms: _537  and  _539
REMARK  212  A    between atoms: _539  and  _540
REMARK  213  A    between atoms: _539  and  _542
REMARK  214  A    between atoms: _545  and  _547
REMARK  215  A    between atoms: _547  and  _548
REMARK  216  A    between atoms: _547  and  _550
REMARK  217  A    between atoms: _550  and  _551
REMARK  218  A    between atoms: _557  and  _559
REMARK  219  A    between atoms: _559  and  _560
REMARK  220  A    between atoms: _559  and  _562
REMARK  221  A    between atoms: _562  and  _563
REMARK  222  A    between atoms: _565  and  _567
REMARK  223  A    between atoms: _567  and  _568
REMARK  224  A    between atoms: _567  and  _570
REMARK  225  A    between atoms: _572  and  _574
REMARK  226  A    between atoms: _574  and  _575
REMARK  227  A    between atoms: _574  and  _577
REMARK  228  A    between atoms: _577  and  _578
REMARK  229  A    between atoms: _583  and  _584
REMARK                            x       y       z     vdW  Elec       q    Type
REMARK                         _______ _______ _______ _____ _____    ______ ____
ROOT
ATOM      1  CA  THR A   1      11.323  41.923  12.710  0.00  0.00    +0.160 C 
ENDROOT
BRANCH   1   2
ATOM      2  N   THR A   1      10.987  42.250  11.330  0.00  0.00    -0.237 NA
ATOM      3  H   THR A   1      11.732  42.221  10.605  0.00  0.00    +0.142 HD
ENDBRANCH   1   2
BRANCH   1   4
ATOM      4  C   THR A   1      12.376  42.913  13.162  0.00  0.00    +0.227 C 
ATOM      5  O   THR A   1      13.351  43.162  12.451  0.00  0.00    -0.287 OA
ENDBRANCH   1   4
BRANCH   1   6
ATOM      6  CB  THR A   1      11.842  40.484  12.856  0.00  0.00    +0.134 C 
ATOM      7  CG2 THR A   1      12.202  40.200  14.318  0.00  0.00    +0.034 C 
BRANCH   6   8
ATOM      8  OG1 THR A   1      10.807  39.574  12.478  0.00  0.00    -0.383 OA
ATOM      9  HG1 THR A   1      11.136  38.645  12.570  0.00  0.00    +0.210 HD
ENDBRANCH   6   8
ENDBRANCH   1   6
TORSDOF 4
REMARK  Name = ../refined-set-2016/2a14/2a14_pocket.pdb
REMARK  229 active torsions:
REMARK  status: ('A' for Active; 'I' for Inactive)
REMARK    1  A    between atoms: _1  and  _5
REMARK    2  A    between atoms: _5  and  _6
REMARK    3  A    between atoms: _5  and  _8
REMARK    4  A    between atoms: _8  and  _9
REMARK    5  A    between atoms: _15  and  _17
REMARK    6  A    between atoms: _17  and  _18
REMARK    7  A    between atoms: _17  and  _20
REMARK    8  A    between atoms: _20  and  _21
REMARK    9  A    between atoms: _24  and  _26
REMARK   10  A    between atoms: _26  and  _27
REMARK   11  A    between atoms: _29  and  _31
REMARK   12  A    between atoms: _31  and  _32
REMARK   13  A    between atoms: _34  and  _36
REMARK   14  A    between atoms: _36  and  _37
REMARK   15  A    between atoms: _36  and  _39
REMARK   16  A    between atoms: _39  and  _40
REMARK   17  A    between atoms: _45  and  _46
REMARK   18  A    between atoms: _48  and  _50
REMARK   19  A    between atoms: _50  and  _51
REMARK   20  A    between atoms: _50  and  _53
REMARK   21  A    between atoms: _53  and  _54
REMARK   22  A    between atoms: _54  and  _55
REMARK   23  A    between atoms: _60  and  _62
REMARK   24  A    between atoms: _62  and  _63
REMARK   25  A    between atoms: _62  and  _65
REMARK   26  A    between atoms: _65  and  _66
REMARK   27  A    between atoms: _73  and  _74
REMARK   28  A    between atoms: _79  and  _81
REMARK   29  A    between atoms: _81  and  _82
REMARK   30  A    between atoms: _81  and  _84
REMARK   31  A    between atoms: _84  and  _85
REMARK   32  A    between atoms: _90  and  _91
REMARK   33  A    between atoms: _93  and  _95
REMARK   34  A    between atoms: _95  and  _96
REMARK   35  A    between atoms: _95  and  _98
REMARK   36  A    between atoms: _98  and  _99
REMARK   37  A    between atoms: _102  and  _104
REMARK   38  A    between atoms: _104  and  _105
REMARK   39  A    between atoms: _104  and  _107
REMARK   40  A    between atoms: _107  and  _108
REMARK   41  A    between atoms: _113  and  _114
REMARK   42  A    between atoms: _116  and  _118
REMARK   43  A    between atoms: _118  and  _119
REMARK   44  A    between atoms: _118  and  _121
REMARK   45  A    between atoms: _121  and  _122
REMARK   46  A    between atoms: _127  and  _128
REMARK   47  A    between atoms: _130  and  _132
REMARK   48  A    between atoms: _132  and  _133
REMARK   49  A    between atoms: _132  and  _135
REMARK   50  A    between atoms: _135  and  _136
REMARK   51  A    between atoms: _139  and  _141
REMARK   52  A    between atoms: _141  and  _142
REMARK   53  A    between atoms: _141  and  _144
REMARK   54  A    between atoms: _144  and  _145
REMARK   55  A    between atoms: _150  and  _152
REMARK   56  A    between atoms: _152  and  _153
REMARK   57  A    between atoms: _152  and  _155
REMARK   58  A    between atoms: _155  and  _156
REMARK   59  A    between atoms: _159  and  _161
REMARK   60  A    between atoms: _161  and  _162
REMARK   61  A    between atoms: _161  and  _164
REMARK   62  A    between atoms: _164  and  _165
REMARK   63  A    between atoms: _168  and  _170
REMARK   64  A    between atoms: _170  and  _171
REMARK   65  A    between atoms: _170  and  _173
REMARK   66  A    between atoms: _173  and  _174
REMARK   67  A    between atoms: _177  and  _179
REMARK   68  A    between atoms: _179  and  _180
REMARK   69  A    between atoms: _182  and  _184
REMARK   70  A    between atoms: _184  and  _185
REMARK   71  A    between atoms: _184  and  _187
REMARK   72  A    between atoms: _187  and  _188
REMARK   73  A    between atoms: _190  and  _192
REMARK   74  A    between atoms: _192  and  _193
REMARK   75  A    between atoms: _196  and  _197
REMARK   76  A    between atoms: _202  and  _204
REMARK   77  A    between atoms: _204  and  _205
REMARK   78  A    between atoms: _204  and  _207
REMARK   79  A    between atoms: _207  and  _208
REMARK   80  A    between atoms: _211  and  _213
REMARK   81  A    between atoms: _213  and  _214
REMARK   82  A    between atoms: _213  and  _216
REMARK   83  A    between atoms: _216  and  _217
REMARK   84  A    between atoms: _220  and  _222
REMARK   85  A    between atoms: _222  and  _223
REMARK   86  A    between atoms: _222  and  _225
REMARK   87  A    between atoms: _225  and  _226
REMARK   88  A    between atoms: _231  and  _232
REMARK   89  A    between atoms: _234  and  _236
REMARK   90  A    between atoms: _236  and  _237
REMARK   91  A    between atoms: _236  and  _239
REMARK   92  A    between atoms: _239  and  _240
REMARK   93  A    between atoms: _240  and  _241
REMARK   94  A    between atoms: _246  and  _248
REMARK   95  A    between atoms: _248  and  _249
REMARK   96  A    between atoms: _248  and  _251
REMARK   97  A    between atoms: _251  and  _252
REMARK   98  A    between atoms: _254  and  _256
REMARK   99  A    between atoms: _256  and  _257
REMARK  100  A    between atoms: _256  and  _259
REMARK  101  A    between atoms: _259  and  _260
REMARK  102  A    between atoms: _263  and  _265
REMARK  103  A    between atoms: _265  and  _266
REMARK  104  A    between atoms: _265  and  _268
REMARK  105  A    between atoms: _268  and  _269
REMARK  106  A    between atoms: _275  and  _277
REMARK  107  A    between atoms: _277  and  _278
REMARK  108  A    between atoms: _277  and  _280
REMARK  109  A    between atoms: _280  and  _281
REMARK  110  A    between atoms: _284  and  _286
REMARK  111  A    between atoms: _286  and  _287
REMARK  112  A    between atoms: _286  and  _289
REMARK  113  A    between atoms: _289  and  _290
REMARK  114  A    between atoms: _293  and  _295
REMARK  115  A    between atoms: _295  and  _296
REMARK  116  A    between atoms: _295  and  _298
REMARK  117  A    between atoms: _298  and  _299
REMARK  118  A    between atoms: _299  and  _300
REMARK  119  A    between atoms: _300  and  _301
REMARK  120  A    between atoms: _310  and  _312
REMARK  121  A    between atoms: _312  and  _313
REMARK  122  A    between atoms: _312  and  _315
REMARK  123  A    between atoms: _315  and  _316
REMARK  124  A    between atoms: _321  and  _323
REMARK  125  A    between atoms: _323  and  _324
REMARK  126  A    between atoms: _323  and  _326
REMARK  127  A    between atoms: _326  and  _327
REMARK  128  A    between atoms: _327  and  _328
REMARK  129  A    between atoms: _328  and  _329
REMARK  130  A    between atoms: _338  and  _340
REMARK  131  A    between atoms: _340  and  _341
REMARK  132  A    between atoms: _340  and  _343
REMARK  133  A    between atoms: _343  and  _344
REMARK  134  A    between atoms: _354  and  _356
REMARK  135  A    between atoms: _356  and  _357
REMARK  136  A    between atoms: _356  and  _359
REMARK  137  A    between atoms: _359  and  _360
REMARK  138  A    between atoms: _360  and  _361
REMARK  139  A    between atoms: _361  and  _362
REMARK  140  A    between atoms: _362  and  _363
REMARK  141  A    between atoms: _367  and  _369
REMARK  142  A    between atoms: _369  and  _370
REMARK  143  A    between atoms: _369  and  _372
REMARK  144  A    between atoms: _374  and  _376
REMARK  145  A    between atoms: _376  and  _377
REMARK  146  A    between atoms: _376  and  _379
REMARK  147  A    between atoms: _379  and  _380
REMARK  148  A    between atoms: _383  and  _385
REMARK  149  A    between atoms: _385  and  _386
REMARK  150  A    between atoms: _385  and  _388
REMARK  151  A    between atoms: _391  and  _393
REMARK  152  A    between atoms: _393  and  _394
REMARK  153  A    between atoms: _393  and  _396
REMARK  154  A    between atoms: _396  and  _397
REMARK  155  A    between atoms: _402  and  _404
REMARK  156  A    between atoms: _404  and  _405
REMARK  157  A    between atoms: _404  and  _407
REMARK  158  A    between atoms: _407  and  _408
REMARK  159  A    between atoms: _412  and  _413
REMARK  160  A    between atoms: _418  and  _420
REMARK  161  A    between atoms: _420  and  _421
REMARK  162  A    between atoms: _420  and  _423
REMARK  163  A    between atoms: _423  and  _424
REMARK  164  A    between atoms: _427  and  _429
REMARK  165  A    between atoms: _429  and  _430
REMARK  166  A    between atoms: _429  and  _432
REMARK  167  A    between atoms: _432  and  _433
REMARK  168  A    between atoms: _436  and  _438
REMARK  169  A    between atoms: _438  and  _439
REMARK  170  A    between atoms: _438  and  _441
REMARK  171  A    between atoms: _441  and  _442
REMARK  172  A    between atoms: _445  and  _447
REMARK  173  A    between atoms: _447  and  _448
REMARK  174  A    between atoms: _447  and  _450
REMARK  175  A    between atoms: _450  and  _451
REMARK  176  A    between atoms: _454  and  _456
REMARK  177  A    between atoms: _456  and  _457
REMARK  178  A    between atoms: _460  and  _462
REMARK  179  A    between atoms: _462  and  _463
REMARK  180  A    between atoms: _462  and  _465
REMARK  181  A    between atoms: _465  and  _466
REMARK  182  A    between atoms: _466  and  _467
REMARK  183  A    between atoms: _469  and  _471
REMARK  184  A    between atoms: _471  and  _472
REMARK  185  A    between atoms: _471  and  _474
REMARK  186  A    between atoms: _474  and  _475
REMARK  187  A    between atoms: _475  and  _476
REMARK  188  A    between atoms: _479  and  _481
REMARK  189  A    between atoms: _481  and  _482
REMARK  190  A    between atoms: _481  and  _484
REMARK  191  A    between atoms: _486  and  _488
REMARK  192  A    between atoms: _488  and  _489
REMARK  193  A    between atoms: _492  and  _494
REMARK  194  A    between atoms: _494  and  _495
REMARK  195  A    between atoms: _494  and  _497
REMARK  196  A    between atoms: _499  and  _501
REMARK  197  A    between atoms: _501  and  _502
REMARK  198  A    between atoms: _505  and  _507
REMARK  199  A    between atoms: _507  and  _508
REMARK  200  A    between atoms: _507  and  _510
REMARK  201  A    between atoms: _510  and  _511
REMARK  202  A    between atoms: _514  and  _516
REMARK  203  A    between atoms: _516  and  _517
REMARK  204  A    between atoms: _516  and  _519
REMARK  205  A    between atoms: _519  and  _520
REMARK  206  A    between atoms: _523  and  _525
REMARK  207  A    between atoms: _525  and  _526
REMARK  208  A    between atoms: _525  and  _528
REMARK  209  A    between atoms: _528  and  _529
REMARK  210  A    between atoms: _534  and  _535
REMARK  211  A    between atoms: _537  and  _539
REMARK  212  A    between atoms: _539  and  _540
REMARK  213  A    between atoms: _539  and  _542
REMARK  214  A    between atoms: _545  and  _547
REMARK  215  A    between atoms: _547  and  _548
REMARK  216  A    between atoms: _547  and  _550
REMARK  217  A    between atoms: _550  and  _551
REMARK  218  A    between atoms: _557  and  _559
REMARK  219  A    between atoms: _559  and  _560
REMARK  220  A    between atoms: _559  and  _562
REMARK  221  A    between atoms: _562  and  _563
REMARK  222  A    between atoms: _565  and  _567
REMARK  223  A    between atoms: _567  and  _568
REMARK  224  A    between atoms: _567  and  _570
REMARK  225  A    between atoms: _572  and  _574
REMARK  226  A    between atoms: _574  and  _575
REMARK  227  A    between atoms: _574  and  _577
REMARK  228  A    between atoms: _577  and  _578
REMARK  229  A    between atoms: _583  and  _584
REMARK                            x       y       z     vdW  Elec       q    Type
REMARK                         _______ _______ _______ _____ _____    ______ ____
ROOT
ATOM      1  CG  TYR A   1      24.805  44.313  16.119  0.00  0.00    -0.020 A 
ATOM      2  CD2 TYR A   1      24.646  45.615  15.630  0.00  0.00    -0.001 A 
ATOM      3  CE2 TYR A   1      24.759  45.901  14.266  0.00  0.00    +0.036 A 
ATOM      4  CZ  TYR A   1      25.032  44.880  13.379  0.00  0.00    +0.134 A 
ATOM      5  CE1 TYR A   1      25.189  43.572  13.833  0.00  0.00    +0.036 A 
ATOM      6  CD1 TYR A   1      25.069  43.296  15.199  0.00  0.00    -0.001 A 
ENDROOT
BRANCH   4   7
ATOM      7  OH  TYR A   1      25.148  45.159  12.045  0.00  0.00    -0.506 OA
ATOM      8  HH  TYR A   1      25.885  45.806  11.907  0.00  0.00    +0.292 HD
ENDBRANCH   4   7
BRANCH   1   9
ATOM      9  CB  TYR A   1      24.657  44.004  17.608  0.00  0.00    +0.051 C 
BRANCH   9  10
ATOM     10  CA  TYR A   1      25.750  44.570  18.535  0.00  0.00    +0.137 C 
BRANCH  10  11
ATOM     11  N   TYR A   1      25.642  46.024  18.670  0.00  0.00    -0.239 NA
ATOM     12  H   TYR A   1      26.195  46.639  18.040  0.00  0.00    +0.142 HD
ENDBRANCH  10  11
BRANCH  10  13
ATOM     13  C   TYR A   1      27.135  44.193  18.052  0.00  0.00    +0.224 C 
ATOM     14  O   TYR A   1      27.780  44.987  17.355  0.00  0.00    -0.287 OA
ENDBRANCH  10  13
ENDBRANCH   9  10
ENDBRANCH   1   9
TORSDOF 5
REMARK  Name = ../refined-set-2016/2a14/2a14_pocket.pdb
REMARK  229 active torsions:
REMARK  status: ('A' for Active; 'I' for Inactive)
REMARK    1  A    between atoms: _1  and  _5
REMARK    2  A    between atoms: _5  and  _6
REMARK    3  A    between atoms: _5  and  _8
REMARK    4  A    between atoms: _8  and  _9
REMARK    5  A    between atoms: _15  and  _17
REMARK    6  A    between atoms: _17  and  _18
REMARK    7  A    between atoms: _17  and  _20
REMARK    8  A    between atoms: _20  and  _21
REMARK    9  A    between atoms: _24  and  _26
REMARK   10  A    between atoms: _26  and  _27
REMARK   11  A    between atoms: _29  and  _31
REMARK   12  A    between atoms: _31  and  _32
REMARK   13  A    between atoms: _34  and  _36
REMARK   14  A    between atoms: _36  and  _37
REMARK   15  A    between atoms: _36  and  _39
REMARK   16  A    between atoms: _39  and  _40
REMARK   17  A    between atoms: _45  and  _46
REMARK   18  A    between atoms: _48  and  _50
REMARK   19  A    between atoms: _50  and  _51
REMARK   20  A    between atoms: _50  and  _53
REMARK   21  A    between atoms: _53  and  _54
REMARK   22  A    between atoms: _54  and  _55
REMARK   23  A    between atoms: _60  and  _62
REMARK   24  A    between atoms: _62  and  _63
REMARK   25  A    between atoms: _62  and  _65
REMARK   26  A    between atoms: _65  and  _66
REMARK   27  A    between atoms: _73  and  _74
REMARK   28  A    between atoms: _79  and  _81
REMARK   29  A    between atoms: _81  and  _82
REMARK   30  A    between atoms: _81  and  _84
REMARK   31  A    between atoms: _84  and  _85
REMARK   32  A    between atoms: _90  and  _91
REMARK   33  A    between atoms: _93  and  _95
REMARK   34  A    between atoms: _95  and  _96
REMARK   35  A    between atoms: _95  and  _98
REMARK   36  A    between atoms: _98  and  _99
REMARK   37  A    between atoms: _102  and  _104
REMARK   38  A    between atoms: _104  and  _105
REMARK   39  A    between atoms: _104  and  _107
REMARK   40  A    between atoms: _107  and  _108
REMARK   41  A    between atoms: _113  and  _114
REMARK   42  A    between atoms: _116  and  _118
REMARK   43  A    between atoms: _118  and  _119
REMARK   44  A    between atoms: _118  and  _121
REMARK   45  A    between atoms: _121  and  _122
REMARK   46  A    between atoms: _127  and  _128
REMARK   47  A    between atoms: _130  and  _132
REMARK   48  A    between atoms: _132  and  _133
REMARK   49  A    between atoms: _132  and  _135
REMARK   50  A    between atoms: _135  and  _136
REMARK   51  A    between atoms: _139  and  _141
REMARK   52  A    between atoms: _141  and  _142
REMARK   53  A    between atoms: _141  and  _144
REMARK   54  A    between atoms: _144  and  _145
REMARK   55  A    between atoms: _150  and  _152
REMARK   56  A    between atoms: _152  and  _153
REMARK   57  A    between atoms: _152  and  _155
REMARK   58  A    between atoms: _155  and  _156
REMARK   59  A    between atoms: _159  and  _161
REMARK   60  A    between atoms: _161  and  _162
REMARK   61  A    between atoms: _161  and  _164
REMARK   62  A    between atoms: _164  and  _165
REMARK   63  A    between atoms: _168  and  _170
REMARK   64  A    between atoms: _170  and  _171
REMARK   65  A    between atoms: _170  and  _173
REMARK   66  A    between atoms: _173  and  _174
REMARK   67  A    between atoms: _177  and  _179
REMARK   68  A    between atoms: _179  and  _180
REMARK   69  A    between atoms: _182  and  _184
REMARK   70  A    between atoms: _184  and  _185
REMARK   71  A    between atoms: _184  and  _187
REMARK   72  A    between atoms: _187  and  _188
REMARK   73  A    between atoms: _190  and  _192
REMARK   74  A    between atoms: _192  and  _193
REMARK   75  A    between atoms: _196  and  _197
REMARK   76  A    between atoms: _202  and  _204
REMARK   77  A    between atoms: _204  and  _205
REMARK   78  A    between atoms: _204  and  _207
REMARK   79  A    between atoms: _207  and  _208
REMARK   80  A    between atoms: _211  and  _213
REMARK   81  A    between atoms: _213  and  _214
REMARK   82  A    between atoms: _213  and  _216
REMARK   83  A    between atoms: _216  and  _217
REMARK   84  A    between atoms: _220  and  _222
REMARK   85  A    between atoms: _222  and  _223
REMARK   86  A    between atoms: _222  and  _225
REMARK   87  A    between atoms: _225  and  _226
REMARK   88  A    between atoms: _231  and  _232
REMARK   89  A    between atoms: _234  and  _236
REMARK   90  A    between atoms: _236  and  _237
REMARK   91  A    between atoms: _236  and  _239
REMARK   92  A    between atoms: _239  and  _240
REMARK   93  A    between atoms: _240  and  _241
REMARK   94  A    between atoms: _246  and  _248
REMARK   95  A    between atoms: _248  and  _249
REMARK   96  A    between atoms: _248  and  _251
REMARK   97  A    between atoms: _251  and  _252
REMARK   98  A    between atoms: _254  and  _256
REMARK   99  A    between atoms: _256  and  _257
REMARK  100  A    between atoms: _256  and  _259
REMARK  101  A    between atoms: _259  and  _260
REMARK  102  A    between atoms: _263  and  _265
REMARK  103  A    between atoms: _265  and  _266
REMARK  104  A    between atoms: _265  and  _268
REMARK  105  A    between atoms: _268  and  _269
REMARK  106  A    between atoms: _275  and  _277
REMARK  107  A    between atoms: _277  and  _278
REMARK  108  A    between atoms: _277  and  _280
REMARK  109  A    between atoms: _280  and  _281
REMARK  110  A    between atoms: _284  and  _286
REMARK  111  A    between atoms: _286  and  _287
REMARK  112  A    between atoms: _286  and  _289
REMARK  113  A    between atoms: _289  and  _290
REMARK  114  A    between atoms: _293  and  _295
REMARK  115  A    between atoms: _295  and  _296
REMARK  116  A    between atoms: _295  and  _298
REMARK  117  A    between atoms: _298  and  _299
REMARK  118  A    between atoms: _299  and  _300
REMARK  119  A    between atoms: _300  and  _301
REMARK  120  A    between atoms: _310  and  _312
REMARK  121  A    between atoms: _312  and  _313
REMARK  122  A    between atoms: _312  and  _315
REMARK  123  A    between atoms: _315  and  _316
REMARK  124  A    between atoms: _321  and  _323
REMARK  125  A    between atoms: _323  and  _324
REMARK  126  A    between atoms: _323  and  _326
REMARK  127  A    between atoms: _326  and  _327
REMARK  128  A    between atoms: _327  and  _328
REMARK  129  A    between atoms: _328  and  _329
REMARK  130  A    between atoms: _338  and  _340
REMARK  131  A    between atoms: _340  and  _341
REMARK  132  A    between atoms: _340  and  _343
REMARK  133  A    between atoms: _343  and  _344
REMARK  134  A    between atoms: _354  and  _356
REMARK  135  A    between atoms: _356  and  _357
REMARK  136  A    between atoms: _356  and  _359
REMARK  137  A    between atoms: _359  and  _360
REMARK  138  A    between atoms: _360  and  _361
REMARK  139  A    between atoms: _361  and  _362
REMARK  140  A    between atoms: _362  and  _363
REMARK  141  A    between atoms: _367  and  _369
REMARK  142  A    between atoms: _369  and  _370
REMARK  143  A    between atoms: _369  and  _372
REMARK  144  A    between atoms: _374  and  _376
REMARK  145  A    between atoms: _376  and  _377
REMARK  146  A    between atoms: _376  and  _379
REMARK  147  A    between atoms: _379  and  _380
REMARK  148  A    between atoms: _383  and  _385
REMARK  149  A    between atoms: _385  and  _386
REMARK  150  A    between atoms: _385  and  _388
REMARK  151  A    between atoms: _391  and  _393
REMARK  152  A    between atoms: _393  and  _394
REMARK  153  A    between atoms: _393  and  _396
REMARK  154  A    between atoms: _396  and  _397
REMARK  155  A    between atoms: _402  and  _404
REMARK  156  A    between atoms: _404  and  _405
REMARK  157  A    between atoms: _404  and  _407
REMARK  158  A    between atoms: _407  and  _408
REMARK  159  A    between atoms: _412  and  _413
REMARK  160  A    between atoms: _418  and  _420
REMARK  161  A    between atoms: _420  and  _421
REMARK  162  A    between atoms: _420  and  _423
REMARK  163  A    between atoms: _423  and  _424
REMARK  164  A    between atoms: _427  and  _429
REMARK  165  A    between atoms: _429  and  _430
REMARK  166  A    between atoms: _429  and  _432
REMARK  167  A    between atoms: _432  and  _433
REMARK  168  A    between atoms: _436  and  _438
REMARK  169  A    between atoms: _438  and  _439
REMARK  170  A    between atoms: _438  and  _441
REMARK  171  A    between atoms: _441  and  _442
REMARK  172  A    between atoms: _445  and  _447
REMARK  173  A    between atoms: _447  and  _448
REMARK  174  A    between atoms: _447  and  _450
REMARK  175  A    between atoms: _450  and  _451
REMARK  176  A    between atoms: _454  and  _456
REMARK  177  A    between atoms: _456  and  _457
REMARK  178  A    between atoms: _460  and  _462
REMARK  179  A    between atoms: _462  and  _463
REMARK  180  A    between atoms: _462  and  _465
REMARK  181  A    between atoms: _465  and  _466
REMARK  182  A    between atoms: _466  and  _467
REMARK  183  A    between atoms: _469  and  _471
REMARK  184  A    between atoms: _471  and  _472
REMARK  185  A    between atoms: _471  and  _474
REMARK  186  A    between atoms: _474  and  _475
REMARK  187  A    between atoms: _475  and  _476
REMARK  188  A    between atoms: _479  and  _481
REMARK  189  A    between atoms: _481  and  _482
REMARK  190  A    between atoms: _481  and  _484
REMARK  191  A    between atoms: _486  and  _488
REMARK  192  A    between atoms: _488  and  _489
REMARK  193  A    between atoms: _492  and  _494
REMARK  194  A    between atoms: _494  and  _495
REMARK  195  A    between atoms: _494  and  _497
REMARK  196  A    between atoms: _499  and  _501
REMARK  197  A    between atoms: _501  and  _502
REMARK  198  A    between atoms: _505  and  _507
REMARK  199  A    between atoms: _507  and  _508
REMARK  200  A    between atoms: _507  and  _510
REMARK  201  A    between atoms: _510  and  _511
REMARK  202  A    between atoms: _514  and  _516
REMARK  203  A    between atoms: _516  and  _517
REMARK  204  A    between atoms: _516  and  _519
REMARK  205  A    between atoms: _519  and  _520
REMARK  206  A    between atoms: _523  and  _525
REMARK  207  A    between atoms: _525  and  _526
REMARK  208  A    between atoms: _525  and  _528
REMARK  209  A    between atoms: _528  and  _529
REMARK  210  A    between atoms: _534  and  _535
REMARK  211  A    between atoms: _537  and  _539
REMARK  212  A    between atoms: _539  and  _540
REMARK  213  A    between atoms: _539  and  _542
REMARK  214  A    between atoms: _545  and  _547
REMARK  215  A    between atoms: _547  and  _548
REMARK  216  A    between atoms: _547  and  _550
REMARK  217  A    between atoms: _550  and  _551
REMARK  218  A    between atoms: _557  and  _559
REMARK  219  A    between atoms: _559  and  _560
REMARK  220  A    between atoms: _559  and  _562
REMARK  221  A    between atoms: _562  and  _563
REMARK  222  A    between atoms: _565  and  _567
REMARK  223  A    between atoms: _567  and  _568
REMARK  224  A    between atoms: _567  and  _570
REMARK  225  A    between atoms: _572  and  _574
REMARK  226  A    between atoms: _574  and  _575
REMARK  227  A    between atoms: _574  and  _577
REMARK  228  A    between atoms: _577  and  _578
REMARK  229  A    between atoms: _583  and  _584
REMARK                            x       y       z     vdW  Elec       q    Type
REMARK                         _______ _______ _______ _____ _____    ______ ____
ROOT
ATOM      1  CA  VAL A   1      30.004  41.025  14.720  0.00  0.00    +0.133 C 
ENDROOT
BRANCH   1   2
ATOM      2  CB  VAL A   1      29.839  41.822  13.401  0.00  0.00    +0.023 C 
ATOM      3  CG2 VAL A   1      28.452  42.442  13.334  0.00  0.00    +0.002 C 
ATOM      4  CG1 VAL A   1      30.080  40.925  12.192  0.00  0.00    +0.002 C 
ENDBRANCH   1   2
BRANCH   1   5
ATOM      5  N   VAL A   1      29.823  41.869  15.893  0.00  0.00    -0.239 NA
ATOM      6  H   VAL A   1      30.508  42.632  16.069  0.00  0.00    +0.142 HD
ENDBRANCH   1   5
BRANCH   1   7
ATOM      7  C   VAL A   1      31.423  40.480  14.874  0.00  0.00    +0.224 C 
ATOM      8  O   VAL A   1      32.404  41.175  14.595  0.00  0.00    -0.287 OA
ENDBRANCH   1   7
TORSDOF 3
REMARK  Name = ../refined-set-2016/2a14/2a14_pocket.pdb
REMARK  229 active torsions:
REMARK  status: ('A' for Active; 'I' for Inactive)
REMARK    1  A    between atoms: _1  and  _5
REMARK    2  A    between atoms: _5  and  _6
REMARK    3  A    between atoms: _5  and  _8
REMARK    4  A    between atoms: _8  and  _9
REMARK    5  A    between atoms: _15  and  _17
REMARK    6  A    between atoms: _17  and  _18
REMARK    7  A    between atoms: _17  and  _20
REMARK    8  A    between atoms: _20  and  _21
REMARK    9  A    between atoms: _24  and  _26
REMARK   10  A    between atoms: _26  and  _27
REMARK   11  A    between atoms: _29  and  _31
REMARK   12  A    between atoms: _31  and  _32
REMARK   13  A    between atoms: _34  and  _36
REMARK   14  A    between atoms: _36  and  _37
REMARK   15  A    between atoms: _36  and  _39
REMARK   16  A    between atoms: _39  and  _40
REMARK   17  A    between atoms: _45  and  _46
REMARK   18  A    between atoms: _48  and  _50
REMARK   19  A    between atoms: _50  and  _51
REMARK   20  A    between atoms: _50  and  _53
REMARK   21  A    between atoms: _53  and  _54
REMARK   22  A    between atoms: _54  and  _55
REMARK   23  A    between atoms: _60  and  _62
REMARK   24  A    between atoms: _62  and  _63
REMARK   25  A    between atoms: _62  and  _65
REMARK   26  A    between atoms: _65  and  _66
REMARK   27  A    between atoms: _73  and  _74
REMARK   28  A    between atoms: _79  and  _81
REMARK   29  A    between atoms: _81  and  _82
REMARK   30  A    between atoms: _81  and  _84
REMARK   31  A    between atoms: _84  and  _85
REMARK   32  A    between atoms: _90  and  _91
REMARK   33  A    between atoms: _93  and  _95
REMARK   34  A    between atoms: _95  and  _96
REMARK   35  A    between atoms: _95  and  _98
REMARK   36  A    between atoms: _98  and  _99
REMARK   37  A    between atoms: _102  and  _104
REMARK   38  A    between atoms: _104  and  _105
REMARK   39  A    between atoms: _104  and  _107
REMARK   40  A    between atoms: _107  and  _108
REMARK   41  A    between atoms: _113  and  _114
REMARK   42  A    between atoms: _116  and  _118
REMARK   43  A    between atoms: _118  and  _119
REMARK   44  A    between atoms: _118  and  _121
REMARK   45  A    between atoms: _121  and  _122
REMARK   46  A    between atoms: _127  and  _128
REMARK   47  A    between atoms: _130  and  _132
REMARK   48  A    between atoms: _132  and  _133
REMARK   49  A    between atoms: _132  and  _135
REMARK   50  A    between atoms: _135  and  _136
REMARK   51  A    between atoms: _139  and  _141
REMARK   52  A    between atoms: _141  and  _142
REMARK   53  A    between atoms: _141  and  _144
REMARK   54  A    between atoms: _144  and  _145
REMARK   55  A    between atoms: _150  and  _152
REMARK   56  A    between atoms: _152  and  _153
REMARK   57  A    between atoms: _152  and  _155
REMARK   58  A    between atoms: _155  and  _156
REMARK   59  A    between atoms: _159  and  _161
REMARK   60  A    between atoms: _161  and  _162
REMARK   61  A    between atoms: _161  and  _164
REMARK   62  A    between atoms: _164  and  _165
REMARK   63  A    between atoms: _168  and  _170
REMARK   64  A    between atoms: _170  and  _171
REMARK   65  A    between atoms: _170  and  _173
REMARK   66  A    between atoms: _173  and  _174
REMARK   67  A    between atoms: _177  and  _179
REMARK   68  A    between atoms: _179  and  _180
REMARK   69  A    between atoms: _182  and  _184
REMARK   70  A    between atoms: _184  and  _185
REMARK   71  A    between atoms: _184  and  _187
REMARK   72  A    between atoms: _187  and  _188
REMARK   73  A    between atoms: _190  and  _192
REMARK   74  A    between atoms: _192  and  _193
REMARK   75  A    between atoms: _196  and  _197
REMARK   76  A    between atoms: _202  and  _204
REMARK   77  A    between atoms: _204  and  _205
REMARK   78  A    between atoms: _204  and  _207
REMARK   79  A    between atoms: _207  and  _208
REMARK   80  A    between atoms: _211  and  _213
REMARK   81  A    between atoms: _213  and  _214
REMARK   82  A    between atoms: _213  and  _216
REMARK   83  A    between atoms: _216  and  _217
REMARK   84  A    between atoms: _220  and  _222
REMARK   85  A    between atoms: _222  and  _223
REMARK   86  A    between atoms: _222  and  _225
REMARK   87  A    between atoms: _225  and  _226
REMARK   88  A    between atoms: _231  and  _232
REMARK   89  A    between atoms: _234  and  _236
REMARK   90  A    between atoms: _236  and  _237
REMARK   91  A    between atoms: _236  and  _239
REMARK   92  A    between atoms: _239  and  _240
REMARK   93  A    between atoms: _240  and  _241
REMARK   94  A    between atoms: _246  and  _248
REMARK   95  A    between atoms: _248  and  _249
REMARK   96  A    between atoms: _248  and  _251
REMARK   97  A    between atoms: _251  and  _252
REMARK   98  A    between atoms: _254  and  _256
REMARK   99  A    between atoms: _256  and  _257
REMARK  100  A    between atoms: _256  and  _259
REMARK  101  A    between atoms: _259  and  _260
REMARK  102  A    between atoms: _263  and  _265
REMARK  103  A    between atoms: _265  and  _266
REMARK  104  A    between atoms: _265  and  _268
REMARK  105  A    between atoms: _268  and  _269
REMARK  106  A    between atoms: _275  and  _277
REMARK  107  A    between atoms: _277  and  _278
REMARK  108  A    between atoms: _277  and  _280
REMARK  109  A    between atoms: _280  and  _281
REMARK  110  A    between atoms: _284  and  _286
REMARK  111  A    between atoms: _286  and  _287
REMARK  112  A    between atoms: _286  and  _289
REMARK  113  A    between atoms: _289  and  _290
REMARK  114  A    between atoms: _293  and  _295
REMARK  115  A    between atoms: _295  and  _296
REMARK  116  A    between atoms: _295  and  _298
REMARK  117  A    between atoms: _298  and  _299
REMARK  118  A    between atoms: _299  and  _300
REMARK  119  A    between atoms: _300  and  _301
REMARK  120  A    between atoms: _310  and  _312
REMARK  121  A    between atoms: _312  and  _313
REMARK  122  A    between atoms: _312  and  _315
REMARK  123  A    between atoms: _315  and  _316
REMARK  124  A    between atoms: _321  and  _323
REMARK  125  A    between atoms: _323  and  _324
REMARK  126  A    between atoms: _323  and  _326
REMARK  127  A    between atoms: _326  and  _327
REMARK  128  A    between atoms: _327  and  _328
REMARK  129  A    between atoms: _328  and  _329
REMARK  130  A    between atoms: _338  and  _340
REMARK  131  A    between atoms: _340  and  _341
REMARK  132  A    between atoms: _340  and  _343
REMARK  133  A    between atoms: _343  and  _344
REMARK  134  A    between atoms: _354  and  _356
REMARK  135  A    between atoms: _356  and  _357
REMARK  136  A    between atoms: _356  and  _359
REMARK  137  A    between atoms: _359  and  _360
REMARK  138  A    between atoms: _360  and  _361
REMARK  139  A    between atoms: _361  and  _362
REMARK  140  A    between atoms: _362  and  _363
REMARK  141  A    between atoms: _367  and  _369
REMARK  142  A    between atoms: _369  and  _370
REMARK  143  A    between atoms: _369  and  _372
REMARK  144  A    between atoms: _374  and  _376
REMARK  145  A    between atoms: _376  and  _377
REMARK  146  A    between atoms: _376  and  _379
REMARK  147  A    between atoms: _379  and  _380
REMARK  148  A    between atoms: _383  and  _385
REMARK  149  A    between atoms: _385  and  _386
REMARK  150  A    between atoms: _385  and  _388
REMARK  151  A    between atoms: _391  and  _393
REMARK  152  A    between atoms: _393  and  _394
REMARK  153  A    between atoms: _393  and  _396
REMARK  154  A    between atoms: _396  and  _397
REMARK  155  A    between atoms: _402  and  _404
REMARK  156  A    between atoms: _404  and  _405
REMARK  157  A    between atoms: _404  and  _407
REMARK  158  A    between atoms: _407  and  _408
REMARK  159  A    between atoms: _412  and  _413
REMARK  160  A    between atoms: _418  and  _420
REMARK  161  A    between atoms: _420  and  _421
REMARK  162  A    between atoms: _420  and  _423
REMARK  163  A    between atoms: _423  and  _424
REMARK  164  A    between atoms: _427  and  _429
REMARK  165  A    between atoms: _429  and  _430
REMARK  166  A    between atoms: _429  and  _432
REMARK  167  A    between atoms: _432  and  _433
REMARK  168  A    between atoms: _436  and  _438
REMARK  169  A    between atoms: _438  and  _439
REMARK  170  A    between atoms: _438  and  _441
REMARK  171  A    between atoms: _441  and  _442
REMARK  172  A    between atoms: _445  and  _447
REMARK  173  A    between atoms: _447  and  _448
REMARK  174  A    between atoms: _447  and  _450
REMARK  175  A    between atoms: _450  and  _451
REMARK  176  A    between atoms: _454  and  _456
REMARK  177  A    between atoms: _456  and  _457
REMARK  178  A    between atoms: _460  and  _462
REMARK  179  A    between atoms: _462  and  _463
REMARK  180  A    between atoms: _462  and  _465
REMARK  181  A    between atoms: _465  and  _466
REMARK  182  A    between atoms: _466  and  _467
REMARK  183  A    between atoms: _469  and  _471
REMARK  184  A    between atoms: _471  and  _472
REMARK  185  A    between atoms: _471  and  _474
REMARK  186  A    between atoms: _474  and  _475
REMARK  187  A    between atoms: _475  and  _476
REMARK  188  A    between atoms: _479  and  _481
REMARK  189  A    between atoms: _481  and  _482
REMARK  190  A    between atoms: _481  and  _484
REMARK  191  A    between atoms: _486  and  _488
REMARK  192  A    between atoms: _488  and  _489
REMARK  193  A    between atoms: _492  and  _494
REMARK  194  A    between atoms: _494  and  _495
REMARK  195  A    between atoms: _494  and  _497
REMARK  196  A    between atoms: _499  and  _501
REMARK  197  A    between atoms: _501  and  _502
REMARK  198  A    between atoms: _505  and  _507
REMARK  199  A    between atoms: _507  and  _508
REMARK  200  A    between atoms: _507  and  _510
REMARK  201  A    between atoms: _510  and  _511
REMARK  202  A    between atoms: _514  and  _516
REMARK  203  A    between atoms: _516  and  _517
REMARK  204  A    between atoms: _516  and  _519
REMARK  205  A    between atoms: _519  and  _520
REMARK  206  A    between atoms: _523  and  _525
REMARK  207  A    between atoms: _525  and  _526
REMARK  208  A    between atoms: _525  and  _528
REMARK  209  A    between atoms: _528  and  _529
REMARK  210  A    between atoms: _534  and  _535
REMARK  211  A    between atoms: _537  and  _539
REMARK  212  A    between atoms: _539  and  _540
REMARK  213  A    between atoms: _539  and  _542
REMARK  214  A    between atoms: _545  and  _547
REMARK  215  A    between atoms: _547  and  _548
REMARK  216  A    between atoms: _547  and  _550
REMARK  217  A    between atoms: _550  and  _551
REMARK  218  A    between atoms: _557  and  _559
REMARK  219  A    between atoms: _559  and  _560
REMARK  220  A    between atoms: _559  and  _562
REMARK  221  A    between atoms: _562  and  _563
REMARK  222  A    between atoms: _565  and  _567
REMARK  223  A    between atoms: _567  and  _568
REMARK  224  A    between atoms: _567  and  _570
REMARK  225  A    between atoms: _572  and  _574
REMARK  226  A    between atoms: _574  and  _575
REMARK  227  A    between atoms: _574  and  _577
REMARK  228  A    between atoms: _577  and  _578
REMARK  229  A    between atoms: _583  and  _584
REMARK                            x       y       z     vdW  Elec       q    Type
REMARK                         _______ _______ _______ _____ _____    ______ ____
ROOT
ATOM      1  C   PHE A   1      27.285  48.709  16.131  0.00  0.00    +0.239 C 
ATOM      2  O   PHE A   1      26.797  48.115  17.093  0.00  0.00    -0.274 OA
ATOM      3  N   SER A   2      26.842  49.892  15.711  0.00  0.00    -0.295 N 
ATOM      4  H   SER A   2      27.239  50.312  14.846  0.00  0.00    +0.150 HD
ENDROOT
BRANCH   1   5
ATOM      5  CA  PHE A   1      28.446  48.093  15.346  0.00  0.00    +0.149 C 
BRANCH   5   6
ATOM      6  N   PHE A   1      29.203  47.199  16.216  0.00  0.00    -0.238 NA
ATOM      7  H   PHE A   1      28.723  46.364  16.608  0.00  0.00    +0.142 HD
ENDBRANCH   5   6
BRANCH   5   8
ATOM      8  CB  PHE A   1      27.900  47.341  14.125  0.00  0.00    +0.053 C 
BRANCH   8   9
ATOM      9  CG  PHE A   1      28.926  47.051  13.064  0.00  0.00    -0.020 A 
ATOM     10  CD2 PHE A   1      29.727  45.917  13.144  0.00  0.00    -0.004 A 
ATOM     11  CE2 PHE A   1      30.682  45.629  12.156  0.00  0.00    -0.000 A 
ATOM     12  CZ  PHE A   1      30.826  46.480  11.065  0.00  0.00    -0.000 A 
ATOM     13  CE1 PHE A   1      30.012  47.616  10.957  0.00  0.00    -0.000 A 
ATOM     14  CD1 PHE A   1      29.064  47.898  11.955  0.00  0.00    -0.004 A 
ENDBRANCH   8   9
ENDBRANCH   5   8
ENDBRANCH   1   5
BRANCH   3  15
ATOM     15  CA  SER A   2      25.805  50.608  16.450  0.00  0.00    +0.178 C 
BRANCH  15  16
ATOM     16  C   SER A   2      24.416  50.087  16.105  0.00  0.00    +0.243 C 
ATOM     17  N   CYS A   3      23.461  50.357  16.987  0.00  0.00    -0.297 N 
ATOM     18  H   CYS A   3      23.731  50.716  17.925  0.00  0.00    +0.150 HD
ATOM     19  O   SER A   2      24.222  49.437  15.073  0.00  0.00    -0.273 OA
BRANCH  17  20
ATOM     20  CA  CYS A   3      22.042  50.167  16.686  0.00  0.00    +0.149 C 
BRANCH  20  21
ATOM     21  CB  CYS A   3      21.504  48.901  17.340  0.00  0.00    +0.096 C 
ATOM     22  SG  CYS A   3      22.243  47.382  16.833  0.00  0.00    -0.080 S 
ENDBRANCH  20  21
BRANCH  20  23
ATOM     23  C   CYS A   3      21.277  51.320  17.284  0.00  0.00    +0.228 C 
ATOM     24  O   CYS A   3      21.688  51.876  18.309  0.00  0.00    -0.286 OA
ENDBRANCH  20  23
ENDBRANCH  17  20
ENDBRANCH  15  16
BRANCH  15  25
ATOM     25  CB  SER A   2      25.891  52.114  16.180  0.00  0.00    +0.166 C 
BRANCH  25  26
ATOM     26  OG  SER A   2      27.228  52.564  16.299  0.00  0.00    -0.380 OA
ATOM     27  H   SER A   2      27.556  52.382  17.215  0.00  0.00    +0.211 HD
ENDBRANCH  25  26
ENDBRANCH  15  25
ENDBRANCH   3  15
TORSDOF 11
REMARK  Name = ../refined-set-2016/2a14/2a14_pocket.pdb
REMARK  229 active torsions:
REMARK  status: ('A' for Active; 'I' for Inactive)
REMARK    1  A    between atoms: _1  and  _5
REMARK    2  A    between atoms: _5  and  _6
REMARK    3  A    between atoms: _5  and  _8
REMARK    4  A    between atoms: _8  and  _9
REMARK    5  A    between atoms: _15  and  _17
REMARK    6  A    between atoms: _17  and  _18
REMARK    7  A    between atoms: _17  and  _20
REMARK    8  A    between atoms: _20  and  _21
REMARK    9  A    between atoms: _24  and  _26
REMARK   10  A    between atoms: _26  and  _27
REMARK   11  A    between atoms: _29  and  _31
REMARK   12  A    between atoms: _31  and  _32
REMARK   13  A    between atoms: _34  and  _36
REMARK   14  A    between atoms: _36  and  _37
REMARK   15  A    between atoms: _36  and  _39
REMARK   16  A    between atoms: _39  and  _40
REMARK   17  A    between atoms: _45  and  _46
REMARK   18  A    between atoms: _48  and  _50
REMARK   19  A    between atoms: _50  and  _51
REMARK   20  A    between atoms: _50  and  _53
REMARK   21  A    between atoms: _53  and  _54
REMARK   22  A    between atoms: _54  and  _55
REMARK   23  A    between atoms: _60  and  _62
REMARK   24  A    between atoms: _62  and  _63
REMARK   25  A    between atoms: _62  and  _65
REMARK   26  A    between atoms: _65  and  _66
REMARK   27  A    between atoms: _73  and  _74
REMARK   28  A    between atoms: _79  and  _81
REMARK   29  A    between atoms: _81  and  _82
REMARK   30  A    between atoms: _81  and  _84
REMARK   31  A    between atoms: _84  and  _85
REMARK   32  A    between atoms: _90  and  _91
REMARK   33  A    between atoms: _93  and  _95
REMARK   34  A    between atoms: _95  and  _96
REMARK   35  A    between atoms: _95  and  _98
REMARK   36  A    between atoms: _98  and  _99
REMARK   37  A    between atoms: _102  and  _104
REMARK   38  A    between atoms: _104  and  _105
REMARK   39  A    between atoms: _104  and  _107
REMARK   40  A    between atoms: _107  and  _108
REMARK   41  A    between atoms: _113  and  _114
REMARK   42  A    between atoms: _116  and  _118
REMARK   43  A    between atoms: _118  and  _119
REMARK   44  A    between atoms: _118  and  _121
REMARK   45  A    between atoms: _121  and  _122
REMARK   46  A    between atoms: _127  and  _128
REMARK   47  A    between atoms: _130  and  _132
REMARK   48  A    between atoms: _132  and  _133
REMARK   49  A    between atoms: _132  and  _135
REMARK   50  A    between atoms: _135  and  _136
REMARK   51  A    between atoms: _139  and  _141
REMARK   52  A    between atoms: _141  and  _142
REMARK   53  A    between atoms: _141  and  _144
REMARK   54  A    between atoms: _144  and  _145
REMARK   55  A    between atoms: _150  and  _152
REMARK   56  A    between atoms: _152  and  _153
REMARK   57  A    between atoms: _152  and  _155
REMARK   58  A    between atoms: _155  and  _156
REMARK   59  A    between atoms: _159  and  _161
REMARK   60  A    between atoms: _161  and  _162
REMARK   61  A    between atoms: _161  and  _164
REMARK   62  A    between atoms: _164  and  _165
REMARK   63  A    between atoms: _168  and  _170
REMARK   64  A    between atoms: _170  and  _171
REMARK   65  A    between atoms: _170  and  _173
REMARK   66  A    between atoms: _173  and  _174
REMARK   67  A    between atoms: _177  and  _179
REMARK   68  A    between atoms: _179  and  _180
REMARK   69  A    between atoms: _182  and  _184
REMARK   70  A    between atoms: _184  and  _185
REMARK   71  A    between atoms: _184  and  _187
REMARK   72  A    between atoms: _187  and  _188
REMARK   73  A    between atoms: _190  and  _192
REMARK   74  A    between atoms: _192  and  _193
REMARK   75  A    between atoms: _196  and  _197
REMARK   76  A    between atoms: _202  and  _204
REMARK   77  A    between atoms: _204  and  _205
REMARK   78  A    between atoms: _204  and  _207
REMARK   79  A    between atoms: _207  and  _208
REMARK   80  A    between atoms: _211  and  _213
REMARK   81  A    between atoms: _213  and  _214
REMARK   82  A    between atoms: _213  and  _216
REMARK   83  A    between atoms: _216  and  _217
REMARK   84  A    between atoms: _220  and  _222
REMARK   85  A    between atoms: _222  and  _223
REMARK   86  A    between atoms: _222  and  _225
REMARK   87  A    between atoms: _225  and  _226
REMARK   88  A    between atoms: _231  and  _232
REMARK   89  A    between atoms: _234  and  _236
REMARK   90  A    between atoms: _236  and  _237
REMARK   91  A    between atoms: _236  and  _239
REMARK   92  A    between atoms: _239  and  _240
REMARK   93  A    between atoms: _240  and  _241
REMARK   94  A    between atoms: _246  and  _248
REMARK   95  A    between atoms: _248  and  _249
REMARK   96  A    between atoms: _248  and  _251
REMARK   97  A    between atoms: _251  and  _252
REMARK   98  A    between atoms: _254  and  _256
REMARK   99  A    between atoms: _256  and  _257
REMARK  100  A    between atoms: _256  and  _259
REMARK  101  A    between atoms: _259  and  _260
REMARK  102  A    between atoms: _263  and  _265
REMARK  103  A    between atoms: _265  and  _266
REMARK  104  A    between atoms: _265  and  _268
REMARK  105  A    between atoms: _268  and  _269
REMARK  106  A    between atoms: _275  and  _277
REMARK  107  A    between atoms: _277  and  _278
REMARK  108  A    between atoms: _277  and  _280
REMARK  109  A    between atoms: _280  and  _281
REMARK  110  A    between atoms: _284  and  _286
REMARK  111  A    between atoms: _286  and  _287
REMARK  112  A    between atoms: _286  and  _289
REMARK  113  A    between atoms: _289  and  _290
REMARK  114  A    between atoms: _293  and  _295
REMARK  115  A    between atoms: _295  and  _296
REMARK  116  A    between atoms: _295  and  _298
REMARK  117  A    between atoms: _298  and  _299
REMARK  118  A    between atoms: _299  and  _300
REMARK  119  A    between atoms: _300  and  _301
REMARK  120  A    between atoms: _310  and  _312
REMARK  121  A    between atoms: _312  and  _313
REMARK  122  A    between atoms: _312  and  _315
REMARK  123  A    between atoms: _315  and  _316
REMARK  124  A    between atoms: _321  and  _323
REMARK  125  A    between atoms: _323  and  _324
REMARK  126  A    between atoms: _323  and  _326
REMARK  127  A    between atoms: _326  and  _327
REMARK  128  A    between atoms: _327  and  _328
REMARK  129  A    between atoms: _328  and  _329
REMARK  130  A    between atoms: _338  and  _340
REMARK  131  A    between atoms: _340  and  _341
REMARK  132  A    between atoms: _340  and  _343
REMARK  133  A    between atoms: _343  and  _344
REMARK  134  A    between atoms: _354  and  _356
REMARK  135  A    between atoms: _356  and  _357
REMARK  136  A    between atoms: _356  and  _359
REMARK  137  A    between atoms: _359  and  _360
REMARK  138  A    between atoms: _360  and  _361
REMARK  139  A    between atoms: _361  and  _362
REMARK  140  A    between atoms: _362  and  _363
REMARK  141  A    between atoms: _367  and  _369
REMARK  142  A    between atoms: _369  and  _370
REMARK  143  A    between atoms: _369  and  _372
REMARK  144  A    between atoms: _374  and  _376
REMARK  145  A    between atoms: _376  and  _377
REMARK  146  A    between atoms: _376  and  _379
REMARK  147  A    between atoms: _379  and  _380
REMARK  148  A    between atoms: _383  and  _385
REMARK  149  A    between atoms: _385  and  _386
REMARK  150  A    between atoms: _385  and  _388
REMARK  151  A    between atoms: _391  and  _393
REMARK  152  A    between atoms: _393  and  _394
REMARK  153  A    between atoms: _393  and  _396
REMARK  154  A    between atoms: _396  and  _397
REMARK  155  A    between atoms: _402  and  _404
REMARK  156  A    between atoms: _404  and  _405
REMARK  157  A    between atoms: _404  and  _407
REMARK  158  A    between atoms: _407  and  _408
REMARK  159  A    between atoms: _412  and  _413
REMARK  160  A    between atoms: _418  and  _420
REMARK  161  A    between atoms: _420  and  _421
REMARK  162  A    between atoms: _420  and  _423
REMARK  163  A    between atoms: _423  and  _424
REMARK  164  A    between atoms: _427  and  _429
REMARK  165  A    between atoms: _429  and  _430
REMARK  166  A    between atoms: _429  and  _432
REMARK  167  A    between atoms: _432  and  _433
REMARK  168  A    between atoms: _436  and  _438
REMARK  169  A    between atoms: _438  and  _439
REMARK  170  A    between atoms: _438  and  _441
REMARK  171  A    between atoms: _441  and  _442
REMARK  172  A    between atoms: _445  and  _447
REMARK  173  A    between atoms: _447  and  _448
REMARK  174  A    between atoms: _447  and  _450
REMARK  175  A    between atoms: _450  and  _451
REMARK  176  A    between atoms: _454  and  _456
REMARK  177  A    between atoms: _456  and  _457
REMARK  178  A    between atoms: _460  and  _462
REMARK  179  A    between atoms: _462  and  _463
REMARK  180  A    between atoms: _462  and  _465
REMARK  181  A    between atoms: _465  and  _466
REMARK  182  A    between atoms: _466  and  _467
REMARK  183  A    between atoms: _469  and  _471
REMARK  184  A    between atoms: _471  and  _472
REMARK  185  A    between atoms: _471  and  _474
REMARK  186  A    between atoms: _474  and  _475
REMARK  187  A    between atoms: _475  and  _476
REMARK  188  A    between atoms: _479  and  _481
REMARK  189  A    between atoms: _481  and  _482
REMARK  190  A    between atoms: _481  and  _484
REMARK  191  A    between atoms: _486  and  _488
REMARK  192  A    between atoms: _488  and  _489
REMARK  193  A    between atoms: _492  and  _494
REMARK  194  A    between atoms: _494  and  _495
REMARK  195  A    between atoms: _494  and  _497
REMARK  196  A    between atoms: _499  and  _501
REMARK  197  A    between atoms: _501  and  _502
REMARK  198  A    between atoms: _505  and  _507
REMARK  199  A    between atoms: _507  and  _508
REMARK  200  A    between atoms: _507  and  _510
REMARK  201  A    between atoms: _510  and  _511
REMARK  202  A    between atoms: _514  and  _516
REMARK  203  A    between atoms: _516  and  _517
REMARK  204  A    between atoms: _516  and  _519
REMARK  205  A    between atoms: _519  and  _520
REMARK  206  A    between atoms: _523  and  _525
REMARK  207  A    between atoms: _525  and  _526
REMARK  208  A    between atoms: _525  and  _528
REMARK  209  A    between atoms: _528  and  _529
REMARK  210  A    between atoms: _534  and  _535
REMARK  211  A    between atoms: _537  and  _539
REMARK  212  A    between atoms: _539  and  _540
REMARK  213  A    between atoms: _539  and  _542
REMARK  214  A    between atoms: _545  and  _547
REMARK  215  A    between atoms: _547  and  _548
REMARK  216  A    between atoms: _547  and  _550
REMARK  217  A    between atoms: _550  and  _551
REMARK  218  A    between atoms: _557  and  _559
REMARK  219  A    between atoms: _559  and  _560
REMARK  220  A    between atoms: _559  and  _562
REMARK  221  A    between atoms: _562  and  _563
REMARK  222  A    between atoms: _565  and  _567
REMARK  223  A    between atoms: _567  and  _568
REMARK  224  A    between atoms: _567  and  _570
REMARK  225  A    between atoms: _572  and  _574
REMARK  226  A    between atoms: _574  and  _575
REMARK  227  A    between atoms: _574  and  _577
REMARK  228  A    between atoms: _577  and  _578
REMARK  229  A    between atoms: _583  and  _584
REMARK                            x       y       z     vdW  Elec       q    Type
REMARK                         _______ _______ _______ _____ _____    ______ ____
ROOT
ATOM      1  CG  TYR A   1      20.606  38.300  20.125  0.00  0.00    -0.020 A 
ATOM      2  CD2 TYR A   1      19.995  39.482  19.696  0.00  0.00    -0.001 A 
ATOM      3  CE2 TYR A   1      19.456  39.589  18.416  0.00  0.00    +0.036 A 
ATOM      4  CZ  TYR A   1      19.522  38.505  17.555  0.00  0.00    +0.134 A 
ATOM      5  CE1 TYR A   1      20.122  37.316  17.953  0.00  0.00    +0.036 A 
ATOM      6  CD1 TYR A   1      20.665  37.223  19.240  0.00  0.00    -0.001 A 
ENDROOT
BRANCH   4   7
ATOM      7  OH  TYR A   1      18.994  38.605  16.294  0.00  0.00    -0.506 OA
ATOM      8  HH  TYR A   1      19.124  37.749  15.814  0.00  0.00    +0.292 HD
ENDBRANCH   4   7
BRANCH   1   9
ATOM      9  CB  TYR A   1      21.227  38.206  21.497  0.00  0.00    +0.051 C 
BRANCH   9  10
ATOM     10  CA  TYR A   1      20.483  37.324  22.482  0.00  0.00    +0.137 C 
BRANCH  10  11
ATOM     11  N   TYR A   1      19.222  37.972  22.832  0.00  0.00    -0.239 NA
ATOM     12  H   TYR A   1      19.084  38.977  22.605  0.00  0.00    +0.142 HD
ENDBRANCH  10  11
BRANCH  10  13
ATOM     13  C   TYR A   1      21.342  37.202  23.739  0.00  0.00    +0.224 C 
ATOM     14  O   TYR A   1      20.960  37.709  24.799  0.00  0.00    -0.287 OA
ENDBRANCH  10  13
ENDBRANCH   9  10
ENDBRANCH   1   9
TORSDOF 5
REMARK  Name = ../refined-set-2016/2a14/2a14_pocket.pdb
REMARK  229 active torsions:
REMARK  status: ('A' for Active; 'I' for Inactive)
REMARK    1  A    between atoms: _1  and  _5
REMARK    2  A    between atoms: _5  and  _6
REMARK    3  A    between atoms: _5  and  _8
REMARK    4  A    between atoms: _8  and  _9
REMARK    5  A    between atoms: _15  and  _17
REMARK    6  A    between atoms: _17  and  _18
REMARK    7  A    between atoms: _17  and  _20
REMARK    8  A    between atoms: _20  and  _21
REMARK    9  A    between atoms: _24  and  _26
REMARK   10  A    between atoms: _26  and  _27
REMARK   11  A    between atoms: _29  and  _31
REMARK   12  A    between atoms: _31  and  _32
REMARK   13  A    between atoms: _34  and  _36
REMARK   14  A    between atoms: _36  and  _37
REMARK   15  A    between atoms: _36  and  _39
REMARK   16  A    between atoms: _39  and  _40
REMARK   17  A    between atoms: _45  and  _46
REMARK   18  A    between atoms: _48  and  _50
REMARK   19  A    between atoms: _50  and  _51
REMARK   20  A    between atoms: _50  and  _53
REMARK   21  A    between atoms: _53  and  _54
REMARK   22  A    between atoms: _54  and  _55
REMARK   23  A    between atoms: _60  and  _62
REMARK   24  A    between atoms: _62  and  _63
REMARK   25  A    between atoms: _62  and  _65
REMARK   26  A    between atoms: _65  and  _66
REMARK   27  A    between atoms: _73  and  _74
REMARK   28  A    between atoms: _79  and  _81
REMARK   29  A    between atoms: _81  and  _82
REMARK   30  A    between atoms: _81  and  _84
REMARK   31  A    between atoms: _84  and  _85
REMARK   32  A    between atoms: _90  and  _91
REMARK   33  A    between atoms: _93  and  _95
REMARK   34  A    between atoms: _95  and  _96
REMARK   35  A    between atoms: _95  and  _98
REMARK   36  A    between atoms: _98  and  _99
REMARK   37  A    between atoms: _102  and  _104
REMARK   38  A    between atoms: _104  and  _105
REMARK   39  A    between atoms: _104  and  _107
REMARK   40  A    between atoms: _107  and  _108
REMARK   41  A    between atoms: _113  and  _114
REMARK   42  A    between atoms: _116  and  _118
REMARK   43  A    between atoms: _118  and  _119
REMARK   44  A    between atoms: _118  and  _121
REMARK   45  A    between atoms: _121  and  _122
REMARK   46  A    between atoms: _127  and  _128
REMARK   47  A    between atoms: _130  and  _132
REMARK   48  A    between atoms: _132  and  _133
REMARK   49  A    between atoms: _132  and  _135
REMARK   50  A    between atoms: _135  and  _136
REMARK   51  A    between atoms: _139  and  _141
REMARK   52  A    between atoms: _141  and  _142
REMARK   53  A    between atoms: _141  and  _144
REMARK   54  A    between atoms: _144  and  _145
REMARK   55  A    between atoms: _150  and  _152
REMARK   56  A    between atoms: _152  and  _153
REMARK   57  A    between atoms: _152  and  _155
REMARK   58  A    between atoms: _155  and  _156
REMARK   59  A    between atoms: _159  and  _161
REMARK   60  A    between atoms: _161  and  _162
REMARK   61  A    between atoms: _161  and  _164
REMARK   62  A    between atoms: _164  and  _165
REMARK   63  A    between atoms: _168  and  _170
REMARK   64  A    between atoms: _170  and  _171
REMARK   65  A    between atoms: _170  and  _173
REMARK   66  A    between atoms: _173  and  _174
REMARK   67  A    between atoms: _177  and  _179
REMARK   68  A    between atoms: _179  and  _180
REMARK   69  A    between atoms: _182  and  _184
REMARK   70  A    between atoms: _184  and  _185
REMARK   71  A    between atoms: _184  and  _187
REMARK   72  A    between atoms: _187  and  _188
REMARK   73  A    between atoms: _190  and  _192
REMARK   74  A    between atoms: _192  and  _193
REMARK   75  A    between atoms: _196  and  _197
REMARK   76  A    between atoms: _202  and  _204
REMARK   77  A    between atoms: _204  and  _205
REMARK   78  A    between atoms: _204  and  _207
REMARK   79  A    between atoms: _207  and  _208
REMARK   80  A    between atoms: _211  and  _213
REMARK   81  A    between atoms: _213  and  _214
REMARK   82  A    between atoms: _213  and  _216
REMARK   83  A    between atoms: _216  and  _217
REMARK   84  A    between atoms: _220  and  _222
REMARK   85  A    between atoms: _222  and  _223
REMARK   86  A    between atoms: _222  and  _225
REMARK   87  A    between atoms: _225  and  _226
REMARK   88  A    between atoms: _231  and  _232
REMARK   89  A    between atoms: _234  and  _236
REMARK   90  A    between atoms: _236  and  _237
REMARK   91  A    between atoms: _236  and  _239
REMARK   92  A    between atoms: _239  and  _240
REMARK   93  A    between atoms: _240  and  _241
REMARK   94  A    between atoms: _246  and  _248
REMARK   95  A    between atoms: _248  and  _249
REMARK   96  A    between atoms: _248  and  _251
REMARK   97  A    between atoms: _251  and  _252
REMARK   98  A    between atoms: _254  and  _256
REMARK   99  A    between atoms: _256  and  _257
REMARK  100  A    between atoms: _256  and  _259
REMARK  101  A    between atoms: _259  and  _260
REMARK  102  A    between atoms: _263  and  _265
REMARK  103  A    between atoms: _265  and  _266
REMARK  104  A    between atoms: _265  and  _268
REMARK  105  A    between atoms: _268  and  _269
REMARK  106  A    between atoms: _275  and  _277
REMARK  107  A    between atoms: _277  and  _278
REMARK  108  A    between atoms: _277  and  _280
REMARK  109  A    between atoms: _280  and  _281
REMARK  110  A    between atoms: _284  and  _286
REMARK  111  A    between atoms: _286  and  _287
REMARK  112  A    between atoms: _286  and  _289
REMARK  113  A    between atoms: _289  and  _290
REMARK  114  A    between atoms: _293  and  _295
REMARK  115  A    between atoms: _295  and  _296
REMARK  116  A    between atoms: _295  and  _298
REMARK  117  A    between atoms: _298  and  _299
REMARK  118  A    between atoms: _299  and  _300
REMARK  119  A    between atoms: _300  and  _301
REMARK  120  A    between atoms: _310  and  _312
REMARK  121  A    between atoms: _312  and  _313
REMARK  122  A    between atoms: _312  and  _315
REMARK  123  A    between atoms: _315  and  _316
REMARK  124  A    between atoms: _321  and  _323
REMARK  125  A    between atoms: _323  and  _324
REMARK  126  A    between atoms: _323  and  _326
REMARK  127  A    between atoms: _326  and  _327
REMARK  128  A    between atoms: _327  and  _328
REMARK  129  A    between atoms: _328  and  _329
REMARK  130  A    between atoms: _338  and  _340
REMARK  131  A    between atoms: _340  and  _341
REMARK  132  A    between atoms: _340  and  _343
REMARK  133  A    between atoms: _343  and  _344
REMARK  134  A    between atoms: _354  and  _356
REMARK  135  A    between atoms: _356  and  _357
REMARK  136  A    between atoms: _356  and  _359
REMARK  137  A    between atoms: _359  and  _360
REMARK  138  A    between atoms: _360  and  _361
REMARK  139  A    between atoms: _361  and  _362
REMARK  140  A    between atoms: _362  and  _363
REMARK  141  A    between atoms: _367  and  _369
REMARK  142  A    between atoms: _369  and  _370
REMARK  143  A    between atoms: _369  and  _372
REMARK  144  A    between atoms: _374  and  _376
REMARK  145  A    between atoms: _376  and  _377
REMARK  146  A    between atoms: _376  and  _379
REMARK  147  A    between atoms: _379  and  _380
REMARK  148  A    between atoms: _383  and  _385
REMARK  149  A    between atoms: _385  and  _386
REMARK  150  A    between atoms: _385  and  _388
REMARK  151  A    between atoms: _391  and  _393
REMARK  152  A    between atoms: _393  and  _394
REMARK  153  A    between atoms: _393  and  _396
REMARK  154  A    between atoms: _396  and  _397
REMARK  155  A    between atoms: _402  and  _404
REMARK  156  A    between atoms: _404  and  _405
REMARK  157  A    between atoms: _404  and  _407
REMARK  158  A    between atoms: _407  and  _408
REMARK  159  A    between atoms: _412  and  _413
REMARK  160  A    between atoms: _418  and  _420
REMARK  161  A    between atoms: _420  and  _421
REMARK  162  A    between atoms: _420  and  _423
REMARK  163  A    between atoms: _423  and  _424
REMARK  164  A    between atoms: _427  and  _429
REMARK  165  A    between atoms: _429  and  _430
REMARK  166  A    between atoms: _429  and  _432
REMARK  167  A    between atoms: _432  and  _433
REMARK  168  A    between atoms: _436  and  _438
REMARK  169  A    between atoms: _438  and  _439
REMARK  170  A    between atoms: _438  and  _441
REMARK  171  A    between atoms: _441  and  _442
REMARK  172  A    between atoms: _445  and  _447
REMARK  173  A    between atoms: _447  and  _448
REMARK  174  A    between atoms: _447  and  _450
REMARK  175  A    between atoms: _450  and  _451
REMARK  176  A    between atoms: _454  and  _456
REMARK  177  A    between atoms: _456  and  _457
REMARK  178  A    between atoms: _460  and  _462
REMARK  179  A    between atoms: _462  and  _463
REMARK  180  A    between atoms: _462  and  _465
REMARK  181  A    between atoms: _465  and  _466
REMARK  182  A    between atoms: _466  and  _467
REMARK  183  A    between atoms: _469  and  _471
REMARK  184  A    between atoms: _471  and  _472
REMARK  185  A    between atoms: _471  and  _474
REMARK  186  A    between atoms: _474  and  _475
REMARK  187  A    between atoms: _475  and  _476
REMARK  188  A    between atoms: _479  and  _481
REMARK  189  A    between atoms: _481  and  _482
REMARK  190  A    between atoms: _481  and  _484
REMARK  191  A    between atoms: _486  and  _488
REMARK  192  A    between atoms: _488  and  _489
REMARK  193  A    between atoms: _492  and  _494
REMARK  194  A    between atoms: _494  and  _495
REMARK  195  A    between atoms: _494  and  _497
REMARK  196  A    between atoms: _499  and  _501
REMARK  197  A    between atoms: _501  and  _502
REMARK  198  A    between atoms: _505  and  _507
REMARK  199  A    between atoms: _507  and  _508
REMARK  200  A    between atoms: _507  and  _510
REMARK  201  A    between atoms: _510  and  _511
REMARK  202  A    between atoms: _514  and  _516
REMARK  203  A    between atoms: _516  and  _517
REMARK  204  A    between atoms: _516  and  _519
REMARK  205  A    between atoms: _519  and  _520
REMARK  206  A    between atoms: _523  and  _525
REMARK  207  A    between atoms: _525  and  _526
REMARK  208  A    between atoms: _525  and  _528
REMARK  209  A    between atoms: _528  and  _529
REMARK  210  A    between atoms: _534  and  _535
REMARK  211  A    between atoms: _537  and  _539
REMARK  212  A    between atoms: _539  and  _540
REMARK  213  A    between atoms: _539  and  _542
REMARK  214  A    between atoms: _545  and  _547
REMARK  215  A    between atoms: _547  and  _548
REMARK  216  A    between atoms: _547  and  _550
REMARK  217  A    between atoms: _550  and  _551
REMARK  218  A    between atoms: _557  and  _559
REMARK  219  A    between atoms: _559  and  _560
REMARK  220  A    between atoms: _559  and  _562
REMARK  221  A    between atoms: _562  and  _563
REMARK  222  A    between atoms: _565  and  _567
REMARK  223  A    between atoms: _567  and  _568
REMARK  224  A    between atoms: _567  and  _570
REMARK  225  A    between atoms: _572  and  _574
REMARK  226  A    between atoms: _574  and  _575
REMARK  227  A    between atoms: _574  and  _577
REMARK  228  A    between atoms: _577  and  _578
REMARK  229  A    between atoms: _583  and  _584
REMARK                            x       y       z     vdW  Elec       q    Type
REMARK                         _______ _______ _______ _____ _____    ______ ____
ROOT
ATOM      1  O   HOH     1      15.256  45.242   9.143  0.00  0.00    +0.000 OA
ENDROOT
TORSDOF 0
REMARK  Name = ../refined-set-2016/2a14/2a14_pocket.pdb
REMARK  229 active torsions:
REMARK  status: ('A' for Active; 'I' for Inactive)
REMARK    1  A    between atoms: _1  and  _5
REMARK    2  A    between atoms: _5  and  _6
REMARK    3  A    between atoms: _5  and  _8
REMARK    4  A    between atoms: _8  and  _9
REMARK    5  A    between atoms: _15  and  _17
REMARK    6  A    between atoms: _17  and  _18
REMARK    7  A    between atoms: _17  and  _20
REMARK    8  A    between atoms: _20  and  _21
REMARK    9  A    between atoms: _24  and  _26
REMARK   10  A    between atoms: _26  and  _27
REMARK   11  A    between atoms: _29  and  _31
REMARK   12  A    between atoms: _31  and  _32
REMARK   13  A    between atoms: _34  and  _36
REMARK   14  A    between atoms: _36  and  _37
REMARK   15  A    between atoms: _36  and  _39
REMARK   16  A    between atoms: _39  and  _40
REMARK   17  A    between atoms: _45  and  _46
REMARK   18  A    between atoms: _48  and  _50
REMARK   19  A    between atoms: _50  and  _51
REMARK   20  A    between atoms: _50  and  _53
REMARK   21  A    between atoms: _53  and  _54
REMARK   22  A    between atoms: _54  and  _55
REMARK   23  A    between atoms: _60  and  _62
REMARK   24  A    between atoms: _62  and  _63
REMARK   25  A    between atoms: _62  and  _65
REMARK   26  A    between atoms: _65  and  _66
REMARK   27  A    between atoms: _73  and  _74
REMARK   28  A    between atoms: _79  and  _81
REMARK   29  A    between atoms: _81  and  _82
REMARK   30  A    between atoms: _81  and  _84
REMARK   31  A    between atoms: _84  and  _85
REMARK   32  A    between atoms: _90  and  _91
REMARK   33  A    between atoms: _93  and  _95
REMARK   34  A    between atoms: _95  and  _96
REMARK   35  A    between atoms: _95  and  _98
REMARK   36  A    between atoms: _98  and  _99
REMARK   37  A    between atoms: _102  and  _104
REMARK   38  A    between atoms: _104  and  _105
REMARK   39  A    between atoms: _104  and  _107
REMARK   40  A    between atoms: _107  and  _108
REMARK   41  A    between atoms: _113  and  _114
REMARK   42  A    between atoms: _116  and  _118
REMARK   43  A    between atoms: _118  and  _119
REMARK   44  A    between atoms: _118  and  _121
REMARK   45  A    between atoms: _121  and  _122
REMARK   46  A    between atoms: _127  and  _128
REMARK   47  A    between atoms: _130  and  _132
REMARK   48  A    between atoms: _132  and  _133
REMARK   49  A    between atoms: _132  and  _135
REMARK   50  A    between atoms: _135  and  _136
REMARK   51  A    between atoms: _139  and  _141
REMARK   52  A    between atoms: _141  and  _142
REMARK   53  A    between atoms: _141  and  _144
REMARK   54  A    between atoms: _144  and  _145
REMARK   55  A    between atoms: _150  and  _152
REMARK   56  A    between atoms: _152  and  _153
REMARK   57  A    between atoms: _152  and  _155
REMARK   58  A    between atoms: _155  and  _156
REMARK   59  A    between atoms: _159  and  _161
REMARK   60  A    between atoms: _161  and  _162
REMARK   61  A    between atoms: _161  and  _164
REMARK   62  A    between atoms: _164  and  _165
REMARK   63  A    between atoms: _168  and  _170
REMARK   64  A    between atoms: _170  and  _171
REMARK   65  A    between atoms: _170  and  _173
REMARK   66  A    between atoms: _173  and  _174
REMARK   67  A    between atoms: _177  and  _179
REMARK   68  A    between atoms: _179  and  _180
REMARK   69  A    between atoms: _182  and  _184
REMARK   70  A    between atoms: _184  and  _185
REMARK   71  A    between atoms: _184  and  _187
REMARK   72  A    between atoms: _187  and  _188
REMARK   73  A    between atoms: _190  and  _192
REMARK   74  A    between atoms: _192  and  _193
REMARK   75  A    between atoms: _196  and  _197
REMARK   76  A    between atoms: _202  and  _204
REMARK   77  A    between atoms: _204  and  _205
REMARK   78  A    between atoms: _204  and  _207
REMARK   79  A    between atoms: _207  and  _208
REMARK   80  A    between atoms: _211  and  _213
REMARK   81  A    between atoms: _213  and  _214
REMARK   82  A    between atoms: _213  and  _216
REMARK   83  A    between atoms: _216  and  _217
REMARK   84  A    between atoms: _220  and  _222
REMARK   85  A    between atoms: _222  and  _223
REMARK   86  A    between atoms: _222  and  _225
REMARK   87  A    between atoms: _225  and  _226
REMARK   88  A    between atoms: _231  and  _232
REMARK   89  A    between atoms: _234  and  _236
REMARK   90  A    between atoms: _236  and  _237
REMARK   91  A    between atoms: _236  and  _239
REMARK   92  A    between atoms: _239  and  _240
REMARK   93  A    between atoms: _240  and  _241
REMARK   94  A    between atoms: _246  and  _248
REMARK   95  A    between atoms: _248  and  _249
REMARK   96  A    between atoms: _248  and  _251
REMARK   97  A    between atoms: _251  and  _252
REMARK   98  A    between atoms: _254  and  _256
REMARK   99  A    between atoms: _256  and  _257
REMARK  100  A    between atoms: _256  and  _259
REMARK  101  A    between atoms: _259  and  _260
REMARK  102  A    between atoms: _263  and  _265
REMARK  103  A    between atoms: _265  and  _266
REMARK  104  A    between atoms: _265  and  _268
REMARK  105  A    between atoms: _268  and  _269
REMARK  106  A    between atoms: _275  and  _277
REMARK  107  A    between atoms: _277  and  _278
REMARK  108  A    between atoms: _277  and  _280
REMARK  109  A    between atoms: _280  and  _281
REMARK  110  A    between atoms: _284  and  _286
REMARK  111  A    between atoms: _286  and  _287
REMARK  112  A    between atoms: _286  and  _289
REMARK  113  A    between atoms: _289  and  _290
REMARK  114  A    between atoms: _293  and  _295
REMARK  115  A    between atoms: _295  and  _296
REMARK  116  A    between atoms: _295  and  _298
REMARK  117  A    between atoms: _298  and  _299
REMARK  118  A    between atoms: _299  and  _300
REMARK  119  A    between atoms: _300  and  _301
REMARK  120  A    between atoms: _310  and  _312
REMARK  121  A    between atoms: _312  and  _313
REMARK  122  A    between atoms: _312  and  _315
REMARK  123  A    between atoms: _315  and  _316
REMARK  124  A    between atoms: _321  and  _323
REMARK  125  A    between atoms: _323  and  _324
REMARK  126  A    between atoms: _323  and  _326
REMARK  127  A    between atoms: _326  and  _327
REMARK  128  A    between atoms: _327  and  _328
REMARK  129  A    between atoms: _328  and  _329
REMARK  130  A    between atoms: _338  and  _340
REMARK  131  A    between atoms: _340  and  _341
REMARK  132  A    between atoms: _340  and  _343
REMARK  133  A    between atoms: _343  and  _344
REMARK  134  A    between atoms: _354  and  _356
REMARK  135  A    between atoms: _356  and  _357
REMARK  136  A    between atoms: _356  and  _359
REMARK  137  A    between atoms: _359  and  _360
REMARK  138  A    between atoms: _360  and  _361
REMARK  139  A    between atoms: _361  and  _362
REMARK  140  A    between atoms: _362  and  _363
REMARK  141  A    between atoms: _367  and  _369
REMARK  142  A    between atoms: _369  and  _370
REMARK  143  A    between atoms: _369  and  _372
REMARK  144  A    between atoms: _374  and  _376
REMARK  145  A    between atoms: _376  and  _377
REMARK  146  A    between atoms: _376  and  _379
REMARK  147  A    between atoms: _379  and  _380
REMARK  148  A    between atoms: _383  and  _385
REMARK  149  A    between atoms: _385  and  _386
REMARK  150  A    between atoms: _385  and  _388
REMARK  151  A    between atoms: _391  and  _393
REMARK  152  A    between atoms: _393  and  _394
REMARK  153  A    between atoms: _393  and  _396
REMARK  154  A    between atoms: _396  and  _397
REMARK  155  A    between atoms: _402  and  _404
REMARK  156  A    between atoms: _404  and  _405
REMARK  157  A    between atoms: _404  and  _407
REMARK  158  A    between atoms: _407  and  _408
REMARK  159  A    between atoms: _412  and  _413
REMARK  160  A    between atoms: _418  and  _420
REMARK  161  A    between atoms: _420  and  _421
REMARK  162  A    between atoms: _420  and  _423
REMARK  163  A    between atoms: _423  and  _424
REMARK  164  A    between atoms: _427  and  _429
REMARK  165  A    between atoms: _429  and  _430
REMARK  166  A    between atoms: _429  and  _432
REMARK  167  A    between atoms: _432  and  _433
REMARK  168  A    between atoms: _436  and  _438
REMARK  169  A    between atoms: _438  and  _439
REMARK  170  A    between atoms: _438  and  _441
REMARK  171  A    between atoms: _441  and  _442
REMARK  172  A    between atoms: _445  and  _447
REMARK  173  A    between atoms: _447  and  _448
REMARK  174  A    between atoms: _447  and  _450
REMARK  175  A    between atoms: _450  and  _451
REMARK  176  A    between atoms: _454  and  _456
REMARK  177  A    between atoms: _456  and  _457
REMARK  178  A    between atoms: _460  and  _462
REMARK  179  A    between atoms: _462  and  _463
REMARK  180  A    between atoms: _462  and  _465
REMARK  181  A    between atoms: _465  and  _466
REMARK  182  A    between atoms: _466  and  _467
REMARK  183  A    between atoms: _469  and  _471
REMARK  184  A    between atoms: _471  and  _472
REMARK  185  A    between atoms: _471  and  _474
REMARK  186  A    between atoms: _474  and  _475
REMARK  187  A    between atoms: _475  and  _476
REMARK  188  A    between atoms: _479  and  _481
REMARK  189  A    between atoms: _481  and  _482
REMARK  190  A    between atoms: _481  and  _484
REMARK  191  A    between atoms: _486  and  _488
REMARK  192  A    between atoms: _488  and  _489
REMARK  193  A    between atoms: _492  and  _494
REMARK  194  A    between atoms: _494  and  _495
REMARK  195  A    between atoms: _494  and  _497
REMARK  196  A    between atoms: _499  and  _501
REMARK  197  A    between atoms: _501  and  _502
REMARK  198  A    between atoms: _505  and  _507
REMARK  199  A    between atoms: _507  and  _508
REMARK  200  A    between atoms: _507  and  _510
REMARK  201  A    between atoms: _510  and  _511
REMARK  202  A    between atoms: _514  and  _516
REMARK  203  A    between atoms: _516  and  _517
REMARK  204  A    between atoms: _516  and  _519
REMARK  205  A    between atoms: _519  and  _520
REMARK  206  A    between atoms: _523  and  _525
REMARK  207  A    between atoms: _525  and  _526
REMARK  208  A    between atoms: _525  and  _528
REMARK  209  A    between atoms: _528  and  _529
REMARK  210  A    between atoms: _534  and  _535
REMARK  211  A    between atoms: _537  and  _539
REMARK  212  A    between atoms: _539  and  _540
REMARK  213  A    between atoms: _539  and  _542
REMARK  214  A    between atoms: _545  and  _547
REMARK  215  A    between atoms: _547  and  _548
REMARK  216  A    between atoms: _547  and  _550
REMARK  217  A    between atoms: _550  and  _551
REMARK  218  A    between atoms: _557  and  _559
REMARK  219  A    between atoms: _559  and  _560
REMARK  220  A    between atoms: _559  and  _562
REMARK  221  A    between atoms: _562  and  _563
REMARK  222  A    between atoms: _565  and  _567
REMARK  223  A    between atoms: _567  and  _568
REMARK  224  A    between atoms: _567  and  _570
REMARK  225  A    between atoms: _572  and  _574
REMARK  226  A    between atoms: _574  and  _575
REMARK  227  A    between atoms: _574  and  _577
REMARK  228  A    between atoms: _577  and  _578
REMARK  229  A    between atoms: _583  and  _584
REMARK                            x       y       z     vdW  Elec       q    Type
REMARK                         _______ _______ _______ _____ _____    ______ ____
ROOT
ATOM      1  O   HOH     1      16.089  41.125   5.863  0.00  0.00    +0.000 OA
ENDROOT
TORSDOF 0
REMARK  Name = ../refined-set-2016/2a14/2a14_pocket.pdb
REMARK  229 active torsions:
REMARK  status: ('A' for Active; 'I' for Inactive)
REMARK    1  A    between atoms: _1  and  _5
REMARK    2  A    between atoms: _5  and  _6
REMARK    3  A    between atoms: _5  and  _8
REMARK    4  A    between atoms: _8  and  _9
REMARK    5  A    between atoms: _15  and  _17
REMARK    6  A    between atoms: _17  and  _18
REMARK    7  A    between atoms: _17  and  _20
REMARK    8  A    between atoms: _20  and  _21
REMARK    9  A    between atoms: _24  and  _26
REMARK   10  A    between atoms: _26  and  _27
REMARK   11  A    between atoms: _29  and  _31
REMARK   12  A    between atoms: _31  and  _32
REMARK   13  A    between atoms: _34  and  _36
REMARK   14  A    between atoms: _36  and  _37
REMARK   15  A    between atoms: _36  and  _39
REMARK   16  A    between atoms: _39  and  _40
REMARK   17  A    between atoms: _45  and  _46
REMARK   18  A    between atoms: _48  and  _50
REMARK   19  A    between atoms: _50  and  _51
REMARK   20  A    between atoms: _50  and  _53
REMARK   21  A    between atoms: _53  and  _54
REMARK   22  A    between atoms: _54  and  _55
REMARK   23  A    between atoms: _60  and  _62
REMARK   24  A    between atoms: _62  and  _63
REMARK   25  A    between atoms: _62  and  _65
REMARK   26  A    between atoms: _65  and  _66
REMARK   27  A    between atoms: _73  and  _74
REMARK   28  A    between atoms: _79  and  _81
REMARK   29  A    between atoms: _81  and  _82
REMARK   30  A    between atoms: _81  and  _84
REMARK   31  A    between atoms: _84  and  _85
REMARK   32  A    between atoms: _90  and  _91
REMARK   33  A    between atoms: _93  and  _95
REMARK   34  A    between atoms: _95  and  _96
REMARK   35  A    between atoms: _95  and  _98
REMARK   36  A    between atoms: _98  and  _99
REMARK   37  A    between atoms: _102  and  _104
REMARK   38  A    between atoms: _104  and  _105
REMARK   39  A    between atoms: _104  and  _107
REMARK   40  A    between atoms: _107  and  _108
REMARK   41  A    between atoms: _113  and  _114
REMARK   42  A    between atoms: _116  and  _118
REMARK   43  A    between atoms: _118  and  _119
REMARK   44  A    between atoms: _118  and  _121
REMARK   45  A    between atoms: _121  and  _122
REMARK   46  A    between atoms: _127  and  _128
REMARK   47  A    between atoms: _130  and  _132
REMARK   48  A    between atoms: _132  and  _133
REMARK   49  A    between atoms: _132  and  _135
REMARK   50  A    between atoms: _135  and  _136
REMARK   51  A    between atoms: _139  and  _141
REMARK   52  A    between atoms: _141  and  _142
REMARK   53  A    between atoms: _141  and  _144
REMARK   54  A    between atoms: _144  and  _145
REMARK   55  A    between atoms: _150  and  _152
REMARK   56  A    between atoms: _152  and  _153
REMARK   57  A    between atoms: _152  and  _155
REMARK   58  A    between atoms: _155  and  _156
REMARK   59  A    between atoms: _159  and  _161
REMARK   60  A    between atoms: _161  and  _162
REMARK   61  A    between atoms: _161  and  _164
REMARK   62  A    between atoms: _164  and  _165
REMARK   63  A    between atoms: _168  and  _170
REMARK   64  A    between atoms: _170  and  _171
REMARK   65  A    between atoms: _170  and  _173
REMARK   66  A    between atoms: _173  and  _174
REMARK   67  A    between atoms: _177  and  _179
REMARK   68  A    between atoms: _179  and  _180
REMARK   69  A    between atoms: _182  and  _184
REMARK   70  A    between atoms: _184  and  _185
REMARK   71  A    between atoms: _184  and  _187
REMARK   72  A    between atoms: _187  and  _188
REMARK   73  A    between atoms: _190  and  _192
REMARK   74  A    between atoms: _192  and  _193
REMARK   75  A    between atoms: _196  and  _197
REMARK   76  A    between atoms: _202  and  _204
REMARK   77  A    between atoms: _204  and  _205
REMARK   78  A    between atoms: _204  and  _207
REMARK   79  A    between atoms: _207  and  _208
REMARK   80  A    between atoms: _211  and  _213
REMARK   81  A    between atoms: _213  and  _214
REMARK   82  A    between atoms: _213  and  _216
REMARK   83  A    between atoms: _216  and  _217
REMARK   84  A    between atoms: _220  and  _222
REMARK   85  A    between atoms: _222  and  _223
REMARK   86  A    between atoms: _222  and  _225
REMARK   87  A    between atoms: _225  and  _226
REMARK   88  A    between atoms: _231  and  _232
REMARK   89  A    between atoms: _234  and  _236
REMARK   90  A    between atoms: _236  and  _237
REMARK   91  A    between atoms: _236  and  _239
REMARK   92  A    between atoms: _239  and  _240
REMARK   93  A    between atoms: _240  and  _241
REMARK   94  A    between atoms: _246  and  _248
REMARK   95  A    between atoms: _248  and  _249
REMARK   96  A    between atoms: _248  and  _251
REMARK   97  A    between atoms: _251  and  _252
REMARK   98  A    between atoms: _254  and  _256
REMARK   99  A    between atoms: _256  and  _257
REMARK  100  A    between atoms: _256  and  _259
REMARK  101  A    between atoms: _259  and  _260
REMARK  102  A    between atoms: _263  and  _265
REMARK  103  A    between atoms: _265  and  _266
REMARK  104  A    between atoms: _265  and  _268
REMARK  105  A    between atoms: _268  and  _269
REMARK  106  A    between atoms: _275  and  _277
REMARK  107  A    between atoms: _277  and  _278
REMARK  108  A    between atoms: _277  and  _280
REMARK  109  A    between atoms: _280  and  _281
REMARK  110  A    between atoms: _284  and  _286
REMARK  111  A    between atoms: _286  and  _287
REMARK  112  A    between atoms: _286  and  _289
REMARK  113  A    between atoms: _289  and  _290
REMARK  114  A    between atoms: _293  and  _295
REMARK  115  A    between atoms: _295  and  _296
REMARK  116  A    between atoms: _295  and  _298
REMARK  117  A    between atoms: _298  and  _299
REMARK  118  A    between atoms: _299  and  _300
REMARK  119  A    between atoms: _300  and  _301
REMARK  120  A    between atoms: _310  and  _312
REMARK  121  A    between atoms: _312  and  _313
REMARK  122  A    between atoms: _312  and  _315
REMARK  123  A    between atoms: _315  and  _316
REMARK  124  A    between atoms: _321  and  _323
REMARK  125  A    between atoms: _323  and  _324
REMARK  126  A    between atoms: _323  and  _326
REMARK  127  A    between atoms: _326  and  _327
REMARK  128  A    between atoms: _327  and  _328
REMARK  129  A    between atoms: _328  and  _329
REMARK  130  A    between atoms: _338  and  _340
REMARK  131  A    between atoms: _340  and  _341
REMARK  132  A    between atoms: _340  and  _343
REMARK  133  A    between atoms: _343  and  _344
REMARK  134  A    between atoms: _354  and  _356
REMARK  135  A    between atoms: _356  and  _357
REMARK  136  A    between atoms: _356  and  _359
REMARK  137  A    between atoms: _359  and  _360
REMARK  138  A    between atoms: _360  and  _361
REMARK  139  A    between atoms: _361  and  _362
REMARK  140  A    between atoms: _362  and  _363
REMARK  141  A    between atoms: _367  and  _369
REMARK  142  A    between atoms: _369  and  _370
REMARK  143  A    between atoms: _369  and  _372
REMARK  144  A    between atoms: _374  and  _376
REMARK  145  A    between atoms: _376  and  _377
REMARK  146  A    between atoms: _376  and  _379
REMARK  147  A    between atoms: _379  and  _380
REMARK  148  A    between atoms: _383  and  _385
REMARK  149  A    between atoms: _385  and  _386
REMARK  150  A    between atoms: _385  and  _388
REMARK  151  A    between atoms: _391  and  _393
REMARK  152  A    between atoms: _393  and  _394
REMARK  153  A    between atoms: _393  and  _396
REMARK  154  A    between atoms: _396  and  _397
REMARK  155  A    between atoms: _402  and  _404
REMARK  156  A    between atoms: _404  and  _405
REMARK  157  A    between atoms: _404  and  _407
REMARK  158  A    between atoms: _407  and  _408
REMARK  159  A    between atoms: _412  and  _413
REMARK  160  A    between atoms: _418  and  _420
REMARK  161  A    between atoms: _420  and  _421
REMARK  162  A    between atoms: _420  and  _423
REMARK  163  A    between atoms: _423  and  _424
REMARK  164  A    between atoms: _427  and  _429
REMARK  165  A    between atoms: _429  and  _430
REMARK  166  A    between atoms: _429  and  _432
REMARK  167  A    between atoms: _432  and  _433
REMARK  168  A    between atoms: _436  and  _438
REMARK  169  A    between atoms: _438  and  _439
REMARK  170  A    between atoms: _438  and  _441
REMARK  171  A    between atoms: _441  and  _442
REMARK  172  A    between atoms: _445  and  _447
REMARK  173  A    between atoms: _447  and  _448
REMARK  174  A    between atoms: _447  and  _450
REMARK  175  A    between atoms: _450  and  _451
REMARK  176  A    between atoms: _454  and  _456
REMARK  177  A    between atoms: _456  and  _457
REMARK  178  A    between atoms: _460  and  _462
REMARK  179  A    between atoms: _462  and  _463
REMARK  180  A    between atoms: _462  and  _465
REMARK  181  A    between atoms: _465  and  _466
REMARK  182  A    between atoms: _466  and  _467
REMARK  183  A    between atoms: _469  and  _471
REMARK  184  A    between atoms: _471  and  _472
REMARK  185  A    between atoms: _471  and  _474
REMARK  186  A    between atoms: _474  and  _475
REMARK  187  A    between atoms: _475  and  _476
REMARK  188  A    between atoms: _479  and  _481
REMARK  189  A    between atoms: _481  and  _482
REMARK  190  A    between atoms: _481  and  _484
REMARK  191  A    between atoms: _486  and  _488
REMARK  192  A    between atoms: _488  and  _489
REMARK  193  A    between atoms: _492  and  _494
REMARK  194  A    between atoms: _494  and  _495
REMARK  195  A    between atoms: _494  and  _497
REMARK  196  A    between atoms: _499  and  _501
REMARK  197  A    between atoms: _501  and  _502
REMARK  198  A    between atoms: _505  and  _507
REMARK  199  A    between atoms: _507  and  _508
REMARK  200  A    between atoms: _507  and  _510
REMARK  201  A    between atoms: _510  and  _511
REMARK  202  A    between atoms: _514  and  _516
REMARK  203  A    between atoms: _516  and  _517
REMARK  204  A    between atoms: _516  and  _519
REMARK  205  A    between atoms: _519  and  _520
REMARK  206  A    between atoms: _523  and  _525
REMARK  207  A    between atoms: _525  and  _526
REMARK  208  A    between atoms: _525  and  _528
REMARK  209  A    between atoms: _528  and  _529
REMARK  210  A    between atoms: _534  and  _535
REMARK  211  A    between atoms: _537  and  _539
REMARK  212  A    between atoms: _539  and  _540
REMARK  213  A    between atoms: _539  and  _542
REMARK  214  A    between atoms: _545  and  _547
REMARK  215  A    between atoms: _547  and  _548
REMARK  216  A    between atoms: _547  and  _550
REMARK  217  A    between atoms: _550  and  _551
REMARK  218  A    between atoms: _557  and  _559
REMARK  219  A    between atoms: _559  and  _560
REMARK  220  A    between atoms: _559  and  _562
REMARK  221  A    between atoms: _562  and  _563
REMARK  222  A    between atoms: _565  and  _567
REMARK  223  A    between atoms: _567  and  _568
REMARK  224  A    between atoms: _567  and  _570
REMARK  225  A    between atoms: _572  and  _574
REMARK  226  A    between atoms: _574  and  _575
REMARK  227  A    between atoms: _574  and  _577
REMARK  228  A    between atoms: _577  and  _578
REMARK  229  A    between atoms: _583  and  _584
REMARK                            x       y       z     vdW  Elec       q    Type
REMARK                         _______ _______ _______ _____ _____    ______ ____
ROOT
ATOM      1  O   HOH     1      19.131  36.448  14.752  0.00  0.00    +0.000 OA
ENDROOT
TORSDOF 0
REMARK  Name = ../refined-set-2016/2a14/2a14_pocket.pdb
REMARK  229 active torsions:
REMARK  status: ('A' for Active; 'I' for Inactive)
REMARK    1  A    between atoms: _1  and  _5
REMARK    2  A    between atoms: _5  and  _6
REMARK    3  A    between atoms: _5  and  _8
REMARK    4  A    between atoms: _8  and  _9
REMARK    5  A    between atoms: _15  and  _17
REMARK    6  A    between atoms: _17  and  _18
REMARK    7  A    between atoms: _17  and  _20
REMARK    8  A    between atoms: _20  and  _21
REMARK    9  A    between atoms: _24  and  _26
REMARK   10  A    between atoms: _26  and  _27
REMARK   11  A    between atoms: _29  and  _31
REMARK   12  A    between atoms: _31  and  _32
REMARK   13  A    between atoms: _34  and  _36
REMARK   14  A    between atoms: _36  and  _37
REMARK   15  A    between atoms: _36  and  _39
REMARK   16  A    between atoms: _39  and  _40
REMARK   17  A    between atoms: _45  and  _46
REMARK   18  A    between atoms: _48  and  _50
REMARK   19  A    between atoms: _50  and  _51
REMARK   20  A    between atoms: _50  and  _53
REMARK   21  A    between atoms: _53  and  _54
REMARK   22  A    between atoms: _54  and  _55
REMARK   23  A    between atoms: _60  and  _62
REMARK   24  A    between atoms: _62  and  _63
REMARK   25  A    between atoms: _62  and  _65
REMARK   26  A    between atoms: _65  and  _66
REMARK   27  A    between atoms: _73  and  _74
REMARK   28  A    between atoms: _79  and  _81
REMARK   29  A    between atoms: _81  and  _82
REMARK   30  A    between atoms: _81  and  _84
REMARK   31  A    between atoms: _84  and  _85
REMARK   32  A    between atoms: _90  and  _91
REMARK   33  A    between atoms: _93  and  _95
REMARK   34  A    between atoms: _95  and  _96
REMARK   35  A    between atoms: _95  and  _98
REMARK   36  A    between atoms: _98  and  _99
REMARK   37  A    between atoms: _102  and  _104
REMARK   38  A    between atoms: _104  and  _105
REMARK   39  A    between atoms: _104  and  _107
REMARK   40  A    between atoms: _107  and  _108
REMARK   41  A    between atoms: _113  and  _114
REMARK   42  A    between atoms: _116  and  _118
REMARK   43  A    between atoms: _118  and  _119
REMARK   44  A    between atoms: _118  and  _121
REMARK   45  A    between atoms: _121  and  _122
REMARK   46  A    between atoms: _127  and  _128
REMARK   47  A    between atoms: _130  and  _132
REMARK   48  A    between atoms: _132  and  _133
REMARK   49  A    between atoms: _132  and  _135
REMARK   50  A    between atoms: _135  and  _136
REMARK   51  A    between atoms: _139  and  _141
REMARK   52  A    between atoms: _141  and  _142
REMARK   53  A    between atoms: _141  and  _144
REMARK   54  A    between atoms: _144  and  _145
REMARK   55  A    between atoms: _150  and  _152
REMARK   56  A    between atoms: _152  and  _153
REMARK   57  A    between atoms: _152  and  _155
REMARK   58  A    between atoms: _155  and  _156
REMARK   59  A    between atoms: _159  and  _161
REMARK   60  A    between atoms: _161  and  _162
REMARK   61  A    between atoms: _161  and  _164
REMARK   62  A    between atoms: _164  and  _165
REMARK   63  A    between atoms: _168  and  _170
REMARK   64  A    between atoms: _170  and  _171
REMARK   65  A    between atoms: _170  and  _173
REMARK   66  A    between atoms: _173  and  _174
REMARK   67  A    between atoms: _177  and  _179
REMARK   68  A    between atoms: _179  and  _180
REMARK   69  A    between atoms: _182  and  _184
REMARK   70  A    between atoms: _184  and  _185
REMARK   71  A    between atoms: _184  and  _187
REMARK   72  A    between atoms: _187  and  _188
REMARK   73  A    between atoms: _190  and  _192
REMARK   74  A    between atoms: _192  and  _193
REMARK   75  A    between atoms: _196  and  _197
REMARK   76  A    between atoms: _202  and  _204
REMARK   77  A    between atoms: _204  and  _205
REMARK   78  A    between atoms: _204  and  _207
REMARK   79  A    between atoms: _207  and  _208
REMARK   80  A    between atoms: _211  and  _213
REMARK   81  A    between atoms: _213  and  _214
REMARK   82  A    between atoms: _213  and  _216
REMARK   83  A    between atoms: _216  and  _217
REMARK   84  A    between atoms: _220  and  _222
REMARK   85  A    between atoms: _222  and  _223
REMARK   86  A    between atoms: _222  and  _225
REMARK   87  A    between atoms: _225  and  _226
REMARK   88  A    between atoms: _231  and  _232
REMARK   89  A    between atoms: _234  and  _236
REMARK   90  A    between atoms: _236  and  _237
REMARK   91  A    between atoms: _236  and  _239
REMARK   92  A    between atoms: _239  and  _240
REMARK   93  A    between atoms: _240  and  _241
REMARK   94  A    between atoms: _246  and  _248
REMARK   95  A    between atoms: _248  and  _249
REMARK   96  A    between atoms: _248  and  _251
REMARK   97  A    between atoms: _251  and  _252
REMARK   98  A    between atoms: _254  and  _256
REMARK   99  A    between atoms: _256  and  _257
REMARK  100  A    between atoms: _256  and  _259
REMARK  101  A    between atoms: _259  and  _260
REMARK  102  A    between atoms: _263  and  _265
REMARK  103  A    between atoms: _265  and  _266
REMARK  104  A    between atoms: _265  and  _268
REMARK  105  A    between atoms: _268  and  _269
REMARK  106  A    between atoms: _275  and  _277
REMARK  107  A    between atoms: _277  and  _278
REMARK  108  A    between atoms: _277  and  _280
REMARK  109  A    between atoms: _280  and  _281
REMARK  110  A    between atoms: _284  and  _286
REMARK  111  A    between atoms: _286  and  _287
REMARK  112  A    between atoms: _286  and  _289
REMARK  113  A    between atoms: _289  and  _290
REMARK  114  A    between atoms: _293  and  _295
REMARK  115  A    between atoms: _295  and  _296
REMARK  116  A    between atoms: _295  and  _298
REMARK  117  A    between atoms: _298  and  _299
REMARK  118  A    between atoms: _299  and  _300
REMARK  119  A    between atoms: _300  and  _301
REMARK  120  A    between atoms: _310  and  _312
REMARK  121  A    between atoms: _312  and  _313
REMARK  122  A    between atoms: _312  and  _315
REMARK  123  A    between atoms: _315  and  _316
REMARK  124  A    between atoms: _321  and  _323
REMARK  125  A    between atoms: _323  and  _324
REMARK  126  A    between atoms: _323  and  _326
REMARK  127  A    between atoms: _326  and  _327
REMARK  128  A    between atoms: _327  and  _328
REMARK  129  A    between atoms: _328  and  _329
REMARK  130  A    between atoms: _338  and  _340
REMARK  131  A    between atoms: _340  and  _341
REMARK  132  A    between atoms: _340  and  _343
REMARK  133  A    between atoms: _343  and  _344
REMARK  134  A    between atoms: _354  and  _356
REMARK  135  A    between atoms: _356  and  _357
REMARK  136  A    between atoms: _356  and  _359
REMARK  137  A    between atoms: _359  and  _360
REMARK  138  A    between atoms: _360  and  _361
REMARK  139  A    between atoms: _361  and  _362
REMARK  140  A    between atoms: _362  and  _363
REMARK  141  A    between atoms: _367  and  _369
REMARK  142  A    between atoms: _369  and  _370
REMARK  143  A    between atoms: _369  and  _372
REMARK  144  A    between atoms: _374  and  _376
REMARK  145  A    between atoms: _376  and  _377
REMARK  146  A    between atoms: _376  and  _379
REMARK  147  A    between atoms: _379  and  _380
REMARK  148  A    between atoms: _383  and  _385
REMARK  149  A    between atoms: _385  and  _386
REMARK  150  A    between atoms: _385  and  _388
REMARK  151  A    between atoms: _391  and  _393
REMARK  152  A    between atoms: _393  and  _394
REMARK  153  A    between atoms: _393  and  _396
REMARK  154  A    between atoms: _396  and  _397
REMARK  155  A    between atoms: _402  and  _404
REMARK  156  A    between atoms: _404  and  _405
REMARK  157  A    between atoms: _404  and  _407
REMARK  158  A    between atoms: _407  and  _408
REMARK  159  A    between atoms: _412  and  _413
REMARK  160  A    between atoms: _418  and  _420
REMARK  161  A    between atoms: _420  and  _421
REMARK  162  A    between atoms: _420  and  _423
REMARK  163  A    between atoms: _423  and  _424
REMARK  164  A    between atoms: _427  and  _429
REMARK  165  A    between atoms: _429  and  _430
REMARK  166  A    between atoms: _429  and  _432
REMARK  167  A    between atoms: _432  and  _433
REMARK  168  A    between atoms: _436  and  _438
REMARK  169  A    between atoms: _438  and  _439
REMARK  170  A    between atoms: _438  and  _441
REMARK  171  A    between atoms: _441  and  _442
REMARK  172  A    between atoms: _445  and  _447
REMARK  173  A    between atoms: _447  and  _448
REMARK  174  A    between atoms: _447  and  _450
REMARK  175  A    between atoms: _450  and  _451
REMARK  176  A    between atoms: _454  and  _456
REMARK  177  A    between atoms: _456  and  _457
REMARK  178  A    between atoms: _460  and  _462
REMARK  179  A    between atoms: _462  and  _463
REMARK  180  A    between atoms: _462  and  _465
REMARK  181  A    between atoms: _465  and  _466
REMARK  182  A    between atoms: _466  and  _467
REMARK  183  A    between atoms: _469  and  _471
REMARK  184  A    between atoms: _471  and  _472
REMARK  185  A    between atoms: _471  and  _474
REMARK  186  A    between atoms: _474  and  _475
REMARK  187  A    between atoms: _475  and  _476
REMARK  188  A    between atoms: _479  and  _481
REMARK  189  A    between atoms: _481  and  _482
REMARK  190  A    between atoms: _481  and  _484
REMARK  191  A    between atoms: _486  and  _488
REMARK  192  A    between atoms: _488  and  _489
REMARK  193  A    between atoms: _492  and  _494
REMARK  194  A    between atoms: _494  and  _495
REMARK  195  A    between atoms: _494  and  _497
REMARK  196  A    between atoms: _499  and  _501
REMARK  197  A    between atoms: _501  and  _502
REMARK  198  A    between atoms: _505  and  _507
REMARK  199  A    between atoms: _507  and  _508
REMARK  200  A    between atoms: _507  and  _510
REMARK  201  A    between atoms: _510  and  _511
REMARK  202  A    between atoms: _514  and  _516
REMARK  203  A    between atoms: _516  and  _517
REMARK  204  A    between atoms: _516  and  _519
REMARK  205  A    between atoms: _519  and  _520
REMARK  206  A    between atoms: _523  and  _525
REMARK  207  A    between atoms: _525  and  _526
REMARK  208  A    between atoms: _525  and  _528
REMARK  209  A    between atoms: _528  and  _529
REMARK  210  A    between atoms: _534  and  _535
REMARK  211  A    between atoms: _537  and  _539
REMARK  212  A    between atoms: _539  and  _540
REMARK  213  A    between atoms: _539  and  _542
REMARK  214  A    between atoms: _545  and  _547
REMARK  215  A    between atoms: _547  and  _548
REMARK  216  A    between atoms: _547  and  _550
REMARK  217  A    between atoms: _550  and  _551
REMARK  218  A    between atoms: _557  and  _559
REMARK  219  A    between atoms: _559  and  _560
REMARK  220  A    between atoms: _559  and  _562
REMARK  221  A    between atoms: _562  and  _563
REMARK  222  A    between atoms: _565  and  _567
REMARK  223  A    between atoms: _567  and  _568
REMARK  224  A    between atoms: _567  and  _570
REMARK  225  A    between atoms: _572  and  _574
REMARK  226  A    between atoms: _574  and  _575
REMARK  227  A    between atoms: _574  and  _577
REMARK  228  A    between atoms: _577  and  _578
REMARK  229  A    between atoms: _583  and  _584
REMARK                            x       y       z     vdW  Elec       q    Type
REMARK                         _______ _______ _______ _____ _____    ______ ____
ROOT
ATOM      1  O   HOH     1      20.456  34.434  15.988  0.00  0.00    +0.000 OA
ENDROOT
TORSDOF 0
REMARK  Name = ../refined-set-2016/2a14/2a14_pocket.pdb
REMARK  229 active torsions:
REMARK  status: ('A' for Active; 'I' for Inactive)
REMARK    1  A    between atoms: _1  and  _5
REMARK    2  A    between atoms: _5  and  _6
REMARK    3  A    between atoms: _5  and  _8
REMARK    4  A    between atoms: _8  and  _9
REMARK    5  A    between atoms: _15  and  _17
REMARK    6  A    between atoms: _17  and  _18
REMARK    7  A    between atoms: _17  and  _20
REMARK    8  A    between atoms: _20  and  _21
REMARK    9  A    between atoms: _24  and  _26
REMARK   10  A    between atoms: _26  and  _27
REMARK   11  A    between atoms: _29  and  _31
REMARK   12  A    between atoms: _31  and  _32
REMARK   13  A    between atoms: _34  and  _36
REMARK   14  A    between atoms: _36  and  _37
REMARK   15  A    between atoms: _36  and  _39
REMARK   16  A    between atoms: _39  and  _40
REMARK   17  A    between atoms: _45  and  _46
REMARK   18  A    between atoms: _48  and  _50
REMARK   19  A    between atoms: _50  and  _51
REMARK   20  A    between atoms: _50  and  _53
REMARK   21  A    between atoms: _53  and  _54
REMARK   22  A    between atoms: _54  and  _55
REMARK   23  A    between atoms: _60  and  _62
REMARK   24  A    between atoms: _62  and  _63
REMARK   25  A    between atoms: _62  and  _65
REMARK   26  A    between atoms: _65  and  _66
REMARK   27  A    between atoms: _73  and  _74
REMARK   28  A    between atoms: _79  and  _81
REMARK   29  A    between atoms: _81  and  _82
REMARK   30  A    between atoms: _81  and  _84
REMARK   31  A    between atoms: _84  and  _85
REMARK   32  A    between atoms: _90  and  _91
REMARK   33  A    between atoms: _93  and  _95
REMARK   34  A    between atoms: _95  and  _96
REMARK   35  A    between atoms: _95  and  _98
REMARK   36  A    between atoms: _98  and  _99
REMARK   37  A    between atoms: _102  and  _104
REMARK   38  A    between atoms: _104  and  _105
REMARK   39  A    between atoms: _104  and  _107
REMARK   40  A    between atoms: _107  and  _108
REMARK   41  A    between atoms: _113  and  _114
REMARK   42  A    between atoms: _116  and  _118
REMARK   43  A    between atoms: _118  and  _119
REMARK   44  A    between atoms: _118  and  _121
REMARK   45  A    between atoms: _121  and  _122
REMARK   46  A    between atoms: _127  and  _128
REMARK   47  A    between atoms: _130  and  _132
REMARK   48  A    between atoms: _132  and  _133
REMARK   49  A    between atoms: _132  and  _135
REMARK   50  A    between atoms: _135  and  _136
REMARK   51  A    between atoms: _139  and  _141
REMARK   52  A    between atoms: _141  and  _142
REMARK   53  A    between atoms: _141  and  _144
REMARK   54  A    between atoms: _144  and  _145
REMARK   55  A    between atoms: _150  and  _152
REMARK   56  A    between atoms: _152  and  _153
REMARK   57  A    between atoms: _152  and  _155
REMARK   58  A    between atoms: _155  and  _156
REMARK   59  A    between atoms: _159  and  _161
REMARK   60  A    between atoms: _161  and  _162
REMARK   61  A    between atoms: _161  and  _164
REMARK   62  A    between atoms: _164  and  _165
REMARK   63  A    between atoms: _168  and  _170
REMARK   64  A    between atoms: _170  and  _171
REMARK   65  A    between atoms: _170  and  _173
REMARK   66  A    between atoms: _173  and  _174
REMARK   67  A    between atoms: _177  and  _179
REMARK   68  A    between atoms: _179  and  _180
REMARK   69  A    between atoms: _182  and  _184
REMARK   70  A    between atoms: _184  and  _185
REMARK   71  A    between atoms: _184  and  _187
REMARK   72  A    between atoms: _187  and  _188
REMARK   73  A    between atoms: _190  and  _192
REMARK   74  A    between atoms: _192  and  _193
REMARK   75  A    between atoms: _196  and  _197
REMARK   76  A    between atoms: _202  and  _204
REMARK   77  A    between atoms: _204  and  _205
REMARK   78  A    between atoms: _204  and  _207
REMARK   79  A    between atoms: _207  and  _208
REMARK   80  A    between atoms: _211  and  _213
REMARK   81  A    between atoms: _213  and  _214
REMARK   82  A    between atoms: _213  and  _216
REMARK   83  A    between atoms: _216  and  _217
REMARK   84  A    between atoms: _220  and  _222
REMARK   85  A    between atoms: _222  and  _223
REMARK   86  A    between atoms: _222  and  _225
REMARK   87  A    between atoms: _225  and  _226
REMARK   88  A    between atoms: _231  and  _232
REMARK   89  A    between atoms: _234  and  _236
REMARK   90  A    between atoms: _236  and  _237
REMARK   91  A    between atoms: _236  and  _239
REMARK   92  A    between atoms: _239  and  _240
REMARK   93  A    between atoms: _240  and  _241
REMARK   94  A    between atoms: _246  and  _248
REMARK   95  A    between atoms: _248  and  _249
REMARK   96  A    between atoms: _248  and  _251
REMARK   97  A    between atoms: _251  and  _252
REMARK   98  A    between atoms: _254  and  _256
REMARK   99  A    between atoms: _256  and  _257
REMARK  100  A    between atoms: _256  and  _259
REMARK  101  A    between atoms: _259  and  _260
REMARK  102  A    between atoms: _263  and  _265
REMARK  103  A    between atoms: _265  and  _266
REMARK  104  A    between atoms: _265  and  _268
REMARK  105  A    between atoms: _268  and  _269
REMARK  106  A    between atoms: _275  and  _277
REMARK  107  A    between atoms: _277  and  _278
REMARK  108  A    between atoms: _277  and  _280
REMARK  109  A    between atoms: _280  and  _281
REMARK  110  A    between atoms: _284  and  _286
REMARK  111  A    between atoms: _286  and  _287
REMARK  112  A    between atoms: _286  and  _289
REMARK  113  A    between atoms: _289  and  _290
REMARK  114  A    between atoms: _293  and  _295
REMARK  115  A    between atoms: _295  and  _296
REMARK  116  A    between atoms: _295  and  _298
REMARK  117  A    between atoms: _298  and  _299
REMARK  118  A    between atoms: _299  and  _300
REMARK  119  A    between atoms: _300  and  _301
REMARK  120  A    between atoms: _310  and  _312
REMARK  121  A    between atoms: _312  and  _313
REMARK  122  A    between atoms: _312  and  _315
REMARK  123  A    between atoms: _315  and  _316
REMARK  124  A    between atoms: _321  and  _323
REMARK  125  A    between atoms: _323  and  _324
REMARK  126  A    between atoms: _323  and  _326
REMARK  127  A    between atoms: _326  and  _327
REMARK  128  A    between atoms: _327  and  _328
REMARK  129  A    between atoms: _328  and  _329
REMARK  130  A    between atoms: _338  and  _340
REMARK  131  A    between atoms: _340  and  _341
REMARK  132  A    between atoms: _340  and  _343
REMARK  133  A    between atoms: _343  and  _344
REMARK  134  A    between atoms: _354  and  _356
REMARK  135  A    between atoms: _356  and  _357
REMARK  136  A    between atoms: _356  and  _359
REMARK  137  A    between atoms: _359  and  _360
REMARK  138  A    between atoms: _360  and  _361
REMARK  139  A    between atoms: _361  and  _362
REMARK  140  A    between atoms: _362  and  _363
REMARK  141  A    between atoms: _367  and  _369
REMARK  142  A    between atoms: _369  and  _370
REMARK  143  A    between atoms: _369  and  _372
REMARK  144  A    between atoms: _374  and  _376
REMARK  145  A    between atoms: _376  and  _377
REMARK  146  A    between atoms: _376  and  _379
REMARK  147  A    between atoms: _379  and  _380
REMARK  148  A    between atoms: _383  and  _385
REMARK  149  A    between atoms: _385  and  _386
REMARK  150  A    between atoms: _385  and  _388
REMARK  151  A    between atoms: _391  and  _393
REMARK  152  A    between atoms: _393  and  _394
REMARK  153  A    between atoms: _393  and  _396
REMARK  154  A    between atoms: _396  and  _397
REMARK  155  A    between atoms: _402  and  _404
REMARK  156  A    between atoms: _404  and  _405
REMARK  157  A    between atoms: _404  and  _407
REMARK  158  A    between atoms: _407  and  _408
REMARK  159  A    between atoms: _412  and  _413
REMARK  160  A    between atoms: _418  and  _420
REMARK  161  A    between atoms: _420  and  _421
REMARK  162  A    between atoms: _420  and  _423
REMARK  163  A    between atoms: _423  and  _424
REMARK  164  A    between atoms: _427  and  _429
REMARK  165  A    between atoms: _429  and  _430
REMARK  166  A    between atoms: _429  and  _432
REMARK  167  A    between atoms: _432  and  _433
REMARK  168  A    between atoms: _436  and  _438
REMARK  169  A    between atoms: _438  and  _439
REMARK  170  A    between atoms: _438  and  _441
REMARK  171  A    between atoms: _441  and  _442
REMARK  172  A    between atoms: _445  and  _447
REMARK  173  A    between atoms: _447  and  _448
REMARK  174  A    between atoms: _447  and  _450
REMARK  175  A    between atoms: _450  and  _451
REMARK  176  A    between atoms: _454  and  _456
REMARK  177  A    between atoms: _456  and  _457
REMARK  178  A    between atoms: _460  and  _462
REMARK  179  A    between atoms: _462  and  _463
REMARK  180  A    between atoms: _462  and  _465
REMARK  181  A    between atoms: _465  and  _466
REMARK  182  A    between atoms: _466  and  _467
REMARK  183  A    between atoms: _469  and  _471
REMARK  184  A    between atoms: _471  and  _472
REMARK  185  A    between atoms: _471  and  _474
REMARK  186  A    between atoms: _474  and  _475
REMARK  187  A    between atoms: _475  and  _476
REMARK  188  A    between atoms: _479  and  _481
REMARK  189  A    between atoms: _481  and  _482
REMARK  190  A    between atoms: _481  and  _484
REMARK  191  A    between atoms: _486  and  _488
REMARK  192  A    between atoms: _488  and  _489
REMARK  193  A    between atoms: _492  and  _494
REMARK  194  A    between atoms: _494  and  _495
REMARK  195  A    between atoms: _494  and  _497
REMARK  196  A    between atoms: _499  and  _501
REMARK  197  A    between atoms: _501  and  _502
REMARK  198  A    between atoms: _505  and  _507
REMARK  199  A    between atoms: _507  and  _508
REMARK  200  A    between atoms: _507  and  _510
REMARK  201  A    between atoms: _510  and  _511
REMARK  202  A    between atoms: _514  and  _516
REMARK  203  A    between atoms: _516  and  _517
REMARK  204  A    between atoms: _516  and  _519
REMARK  205  A    between atoms: _519  and  _520
REMARK  206  A    between atoms: _523  and  _525
REMARK  207  A    between atoms: _525  and  _526
REMARK  208  A    between atoms: _525  and  _528
REMARK  209  A    between atoms: _528  and  _529
REMARK  210  A    between atoms: _534  and  _535
REMARK  211  A    between atoms: _537  and  _539
REMARK  212  A    between atoms: _539  and  _540
REMARK  213  A    between atoms: _539  and  _542
REMARK  214  A    between atoms: _545  and  _547
REMARK  215  A    between atoms: _547  and  _548
REMARK  216  A    between atoms: _547  and  _550
REMARK  217  A    between atoms: _550  and  _551
REMARK  218  A    between atoms: _557  and  _559
REMARK  219  A    between atoms: _559  and  _560
REMARK  220  A    between atoms: _559  and  _562
REMARK  221  A    between atoms: _562  and  _563
REMARK  222  A    between atoms: _565  and  _567
REMARK  223  A    between atoms: _567  and  _568
REMARK  224  A    between atoms: _567  and  _570
REMARK  225  A    between atoms: _572  and  _574
REMARK  226  A    between atoms: _574  and  _575
REMARK  227  A    between atoms: _574  and  _577
REMARK  228  A    between atoms: _577  and  _578
REMARK  229  A    between atoms: _583  and  _584
REMARK                            x       y       z     vdW  Elec       q    Type
REMARK                         _______ _______ _______ _____ _____    ______ ____
ROOT
ATOM      1  O   HOH     1      20.681  51.436  -3.551  0.00  0.00    +0.000 OA
ENDROOT
TORSDOF 0
REMARK  Name = ../refined-set-2016/2a14/2a14_pocket.pdb
REMARK  229 active torsions:
REMARK  status: ('A' for Active; 'I' for Inactive)
REMARK    1  A    between atoms: _1  and  _5
REMARK    2  A    between atoms: _5  and  _6
REMARK    3  A    between atoms: _5  and  _8
REMARK    4  A    between atoms: _8  and  _9
REMARK    5  A    between atoms: _15  and  _17
REMARK    6  A    between atoms: _17  and  _18
REMARK    7  A    between atoms: _17  and  _20
REMARK    8  A    between atoms: _20  and  _21
REMARK    9  A    between atoms: _24  and  _26
REMARK   10  A    between atoms: _26  and  _27
REMARK   11  A    between atoms: _29  and  _31
REMARK   12  A    between atoms: _31  and  _32
REMARK   13  A    between atoms: _34  and  _36
REMARK   14  A    between atoms: _36  and  _37
REMARK   15  A    between atoms: _36  and  _39
REMARK   16  A    between atoms: _39  and  _40
REMARK   17  A    between atoms: _45  and  _46
REMARK   18  A    between atoms: _48  and  _50
REMARK   19  A    between atoms: _50  and  _51
REMARK   20  A    between atoms: _50  and  _53
REMARK   21  A    between atoms: _53  and  _54
REMARK   22  A    between atoms: _54  and  _55
REMARK   23  A    between atoms: _60  and  _62
REMARK   24  A    between atoms: _62  and  _63
REMARK   25  A    between atoms: _62  and  _65
REMARK   26  A    between atoms: _65  and  _66
REMARK   27  A    between atoms: _73  and  _74
REMARK   28  A    between atoms: _79  and  _81
REMARK   29  A    between atoms: _81  and  _82
REMARK   30  A    between atoms: _81  and  _84
REMARK   31  A    between atoms: _84  and  _85
REMARK   32  A    between atoms: _90  and  _91
REMARK   33  A    between atoms: _93  and  _95
REMARK   34  A    between atoms: _95  and  _96
REMARK   35  A    between atoms: _95  and  _98
REMARK   36  A    between atoms: _98  and  _99
REMARK   37  A    between atoms: _102  and  _104
REMARK   38  A    between atoms: _104  and  _105
REMARK   39  A    between atoms: _104  and  _107
REMARK   40  A    between atoms: _107  and  _108
REMARK   41  A    between atoms: _113  and  _114
REMARK   42  A    between atoms: _116  and  _118
REMARK   43  A    between atoms: _118  and  _119
REMARK   44  A    between atoms: _118  and  _121
REMARK   45  A    between atoms: _121  and  _122
REMARK   46  A    between atoms: _127  and  _128
REMARK   47  A    between atoms: _130  and  _132
REMARK   48  A    between atoms: _132  and  _133
REMARK   49  A    between atoms: _132  and  _135
REMARK   50  A    between atoms: _135  and  _136
REMARK   51  A    between atoms: _139  and  _141
REMARK   52  A    between atoms: _141  and  _142
REMARK   53  A    between atoms: _141  and  _144
REMARK   54  A    between atoms: _144  and  _145
REMARK   55  A    between atoms: _150  and  _152
REMARK   56  A    between atoms: _152  and  _153
REMARK   57  A    between atoms: _152  and  _155
REMARK   58  A    between atoms: _155  and  _156
REMARK   59  A    between atoms: _159  and  _161
REMARK   60  A    between atoms: _161  and  _162
REMARK   61  A    between atoms: _161  and  _164
REMARK   62  A    between atoms: _164  and  _165
REMARK   63  A    between atoms: _168  and  _170
REMARK   64  A    between atoms: _170  and  _171
REMARK   65  A    between atoms: _170  and  _173
REMARK   66  A    between atoms: _173  and  _174
REMARK   67  A    between atoms: _177  and  _179
REMARK   68  A    between atoms: _179  and  _180
REMARK   69  A    between atoms: _182  and  _184
REMARK   70  A    between atoms: _184  and  _185
REMARK   71  A    between atoms: _184  and  _187
REMARK   72  A    between atoms: _187  and  _188
REMARK   73  A    between atoms: _190  and  _192
REMARK   74  A    between atoms: _192  and  _193
REMARK   75  A    between atoms: _196  and  _197
REMARK   76  A    between atoms: _202  and  _204
REMARK   77  A    between atoms: _204  and  _205
REMARK   78  A    between atoms: _204  and  _207
REMARK   79  A    between atoms: _207  and  _208
REMARK   80  A    between atoms: _211  and  _213
REMARK   81  A    between atoms: _213  and  _214
REMARK   82  A    between atoms: _213  and  _216
REMARK   83  A    between atoms: _216  and  _217
REMARK   84  A    between atoms: _220  and  _222
REMARK   85  A    between atoms: _222  and  _223
REMARK   86  A    between atoms: _222  and  _225
REMARK   87  A    between atoms: _225  and  _226
REMARK   88  A    between atoms: _231  and  _232
REMARK   89  A    between atoms: _234  and  _236
REMARK   90  A    between atoms: _236  and  _237
REMARK   91  A    between atoms: _236  and  _239
REMARK   92  A    between atoms: _239  and  _240
REMARK   93  A    between atoms: _240  and  _241
REMARK   94  A    between atoms: _246  and  _248
REMARK   95  A    between atoms: _248  and  _249
REMARK   96  A    between atoms: _248  and  _251
REMARK   97  A    between atoms: _251  and  _252
REMARK   98  A    between atoms: _254  and  _256
REMARK   99  A    between atoms: _256  and  _257
REMARK  100  A    between atoms: _256  and  _259
REMARK  101  A    between atoms: _259  and  _260
REMARK  102  A    between atoms: _263  and  _265
REMARK  103  A    between atoms: _265  and  _266
REMARK  104  A    between atoms: _265  and  _268
REMARK  105  A    between atoms: _268  and  _269
REMARK  106  A    between atoms: _275  and  _277
REMARK  107  A    between atoms: _277  and  _278
REMARK  108  A    between atoms: _277  and  _280
REMARK  109  A    between atoms: _280  and  _281
REMARK  110  A    between atoms: _284  and  _286
REMARK  111  A    between atoms: _286  and  _287
REMARK  112  A    between atoms: _286  and  _289
REMARK  113  A    between atoms: _289  and  _290
REMARK  114  A    between atoms: _293  and  _295
REMARK  115  A    between atoms: _295  and  _296
REMARK  116  A    between atoms: _295  and  _298
REMARK  117  A    between atoms: _298  and  _299
REMARK  118  A    between atoms: _299  and  _300
REMARK  119  A    between atoms: _300  and  _301
REMARK  120  A    between atoms: _310  and  _312
REMARK  121  A    between atoms: _312  and  _313
REMARK  122  A    between atoms: _312  and  _315
REMARK  123  A    between atoms: _315  and  _316
REMARK  124  A    between atoms: _321  and  _323
REMARK  125  A    between atoms: _323  and  _324
REMARK  126  A    between atoms: _323  and  _326
REMARK  127  A    between atoms: _326  and  _327
REMARK  128  A    between atoms: _327  and  _328
REMARK  129  A    between atoms: _328  and  _329
REMARK  130  A    between atoms: _338  and  _340
REMARK  131  A    between atoms: _340  and  _341
REMARK  132  A    between atoms: _340  and  _343
REMARK  133  A    between atoms: _343  and  _344
REMARK  134  A    between atoms: _354  and  _356
REMARK  135  A    between atoms: _356  and  _357
REMARK  136  A    between atoms: _356  and  _359
REMARK  137  A    between atoms: _359  and  _360
REMARK  138  A    between atoms: _360  and  _361
REMARK  139  A    between atoms: _361  and  _362
REMARK  140  A    between atoms: _362  and  _363
REMARK  141  A    between atoms: _367  and  _369
REMARK  142  A    between atoms: _369  and  _370
REMARK  143  A    between atoms: _369  and  _372
REMARK  144  A    between atoms: _374  and  _376
REMARK  145  A    between atoms: _376  and  _377
REMARK  146  A    between atoms: _376  and  _379
REMARK  147  A    between atoms: _379  and  _380
REMARK  148  A    between atoms: _383  and  _385
REMARK  149  A    between atoms: _385  and  _386
REMARK  150  A    between atoms: _385  and  _388
REMARK  151  A    between atoms: _391  and  _393
REMARK  152  A    between atoms: _393  and  _394
REMARK  153  A    between atoms: _393  and  _396
REMARK  154  A    between atoms: _396  and  _397
REMARK  155  A    between atoms: _402  and  _404
REMARK  156  A    between atoms: _404  and  _405
REMARK  157  A    between atoms: _404  and  _407
REMARK  158  A    between atoms: _407  and  _408
REMARK  159  A    between atoms: _412  and  _413
REMARK  160  A    between atoms: _418  and  _420
REMARK  161  A    between atoms: _420  and  _421
REMARK  162  A    between atoms: _420  and  _423
REMARK  163  A    between atoms: _423  and  _424
REMARK  164  A    between atoms: _427  and  _429
REMARK  165  A    between atoms: _429  and  _430
REMARK  166  A    between atoms: _429  and  _432
REMARK  167  A    between atoms: _432  and  _433
REMARK  168  A    between atoms: _436  and  _438
REMARK  169  A    between atoms: _438  and  _439
REMARK  170  A    between atoms: _438  and  _441
REMARK  171  A    between atoms: _441  and  _442
REMARK  172  A    between atoms: _445  and  _447
REMARK  173  A    between atoms: _447  and  _448
REMARK  174  A    between atoms: _447  and  _450
REMARK  175  A    between atoms: _450  and  _451
REMARK  176  A    between atoms: _454  and  _456
REMARK  177  A    between atoms: _456  and  _457
REMARK  178  A    between atoms: _460  and  _462
REMARK  179  A    between atoms: _462  and  _463
REMARK  180  A    between atoms: _462  and  _465
REMARK  181  A    between atoms: _465  and  _466
REMARK  182  A    between atoms: _466  and  _467
REMARK  183  A    between atoms: _469  and  _471
REMARK  184  A    between atoms: _471  and  _472
REMARK  185  A    between atoms: _471  and  _474
REMARK  186  A    between atoms: _474  and  _475
REMARK  187  A    between atoms: _475  and  _476
REMARK  188  A    between atoms: _479  and  _481
REMARK  189  A    between atoms: _481  and  _482
REMARK  190  A    between atoms: _481  and  _484
REMARK  191  A    between atoms: _486  and  _488
REMARK  192  A    between atoms: _488  and  _489
REMARK  193  A    between atoms: _492  and  _494
REMARK  194  A    between atoms: _494  and  _495
REMARK  195  A    between atoms: _494  and  _497
REMARK  196  A    between atoms: _499  and  _501
REMARK  197  A    between atoms: _501  and  _502
REMARK  198  A    between atoms: _505  and  _507
REMARK  199  A    between atoms: _507  and  _508
REMARK  200  A    between atoms: _507  and  _510
REMARK  201  A    between atoms: _510  and  _511
REMARK  202  A    between atoms: _514  and  _516
REMARK  203  A    between atoms: _516  and  _517
REMARK  204  A    between atoms: _516  and  _519
REMARK  205  A    between atoms: _519  and  _520
REMARK  206  A    between atoms: _523  and  _525
REMARK  207  A    between atoms: _525  and  _526
REMARK  208  A    between atoms: _525  and  _528
REMARK  209  A    between atoms: _528  and  _529
REMARK  210  A    between atoms: _534  and  _535
REMARK  211  A    between atoms: _537  and  _539
REMARK  212  A    between atoms: _539  and  _540
REMARK  213  A    between atoms: _539  and  _542
REMARK  214  A    between atoms: _545  and  _547
REMARK  215  A    between atoms: _547  and  _548
REMARK  216  A    between atoms: _547  and  _550
REMARK  217  A    between atoms: _550  and  _551
REMARK  218  A    between atoms: _557  and  _559
REMARK  219  A    between atoms: _559  and  _560
REMARK  220  A    between atoms: _559  and  _562
REMARK  221  A    between atoms: _562  and  _563
REMARK  222  A    between atoms: _565  and  _567
REMARK  223  A    between atoms: _567  and  _568
REMARK  224  A    between atoms: _567  and  _570
REMARK  225  A    between atoms: _572  and  _574
REMARK  226  A    between atoms: _574  and  _575
REMARK  227  A    between atoms: _574  and  _577
REMARK  228  A    between atoms: _577  and  _578
REMARK  229  A    between atoms: _583  and  _584
REMARK                            x       y       z     vdW  Elec       q    Type
REMARK                         _______ _______ _______ _____ _____    ______ ____
ROOT
ATOM      1  O   HOH     1      25.112  49.999  12.645  0.00  0.00    +0.000 OA
ENDROOT
TORSDOF 0
REMARK  Name = ../refined-set-2016/2a14/2a14_pocket.pdb
REMARK  229 active torsions:
REMARK  status: ('A' for Active; 'I' for Inactive)
REMARK    1  A    between atoms: _1  and  _5
REMARK    2  A    between atoms: _5  and  _6
REMARK    3  A    between atoms: _5  and  _8
REMARK    4  A    between atoms: _8  and  _9
REMARK    5  A    between atoms: _15  and  _17
REMARK    6  A    between atoms: _17  and  _18
REMARK    7  A    between atoms: _17  and  _20
REMARK    8  A    between atoms: _20  and  _21
REMARK    9  A    between atoms: _24  and  _26
REMARK   10  A    between atoms: _26  and  _27
REMARK   11  A    between atoms: _29  and  _31
REMARK   12  A    between atoms: _31  and  _32
REMARK   13  A    between atoms: _34  and  _36
REMARK   14  A    between atoms: _36  and  _37
REMARK   15  A    between atoms: _36  and  _39
REMARK   16  A    between atoms: _39  and  _40
REMARK   17  A    between atoms: _45  and  _46
REMARK   18  A    between atoms: _48  and  _50
REMARK   19  A    between atoms: _50  and  _51
REMARK   20  A    between atoms: _50  and  _53
REMARK   21  A    between atoms: _53  and  _54
REMARK   22  A    between atoms: _54  and  _55
REMARK   23  A    between atoms: _60  and  _62
REMARK   24  A    between atoms: _62  and  _63
REMARK   25  A    between atoms: _62  and  _65
REMARK   26  A    between atoms: _65  and  _66
REMARK   27  A    between atoms: _73  and  _74
REMARK   28  A    between atoms: _79  and  _81
REMARK   29  A    between atoms: _81  and  _82
REMARK   30  A    between atoms: _81  and  _84
REMARK   31  A    between atoms: _84  and  _85
REMARK   32  A    between atoms: _90  and  _91
REMARK   33  A    between atoms: _93  and  _95
REMARK   34  A    between atoms: _95  and  _96
REMARK   35  A    between atoms: _95  and  _98
REMARK   36  A    between atoms: _98  and  _99
REMARK   37  A    between atoms: _102  and  _104
REMARK   38  A    between atoms: _104  and  _105
REMARK   39  A    between atoms: _104  and  _107
REMARK   40  A    between atoms: _107  and  _108
REMARK   41  A    between atoms: _113  and  _114
REMARK   42  A    between atoms: _116  and  _118
REMARK   43  A    between atoms: _118  and  _119
REMARK   44  A    between atoms: _118  and  _121
REMARK   45  A    between atoms: _121  and  _122
REMARK   46  A    between atoms: _127  and  _128
REMARK   47  A    between atoms: _130  and  _132
REMARK   48  A    between atoms: _132  and  _133
REMARK   49  A    between atoms: _132  and  _135
REMARK   50  A    between atoms: _135  and  _136
REMARK   51  A    between atoms: _139  and  _141
REMARK   52  A    between atoms: _141  and  _142
REMARK   53  A    between atoms: _141  and  _144
REMARK   54  A    between atoms: _144  and  _145
REMARK   55  A    between atoms: _150  and  _152
REMARK   56  A    between atoms: _152  and  _153
REMARK   57  A    between atoms: _152  and  _155
REMARK   58  A    between atoms: _155  and  _156
REMARK   59  A    between atoms: _159  and  _161
REMARK   60  A    between atoms: _161  and  _162
REMARK   61  A    between atoms: _161  and  _164
REMARK   62  A    between atoms: _164  and  _165
REMARK   63  A    between atoms: _168  and  _170
REMARK   64  A    between atoms: _170  and  _171
REMARK   65  A    between atoms: _170  and  _173
REMARK   66  A    between atoms: _173  and  _174
REMARK   67  A    between atoms: _177  and  _179
REMARK   68  A    between atoms: _179  and  _180
REMARK   69  A    between atoms: _182  and  _184
REMARK   70  A    between atoms: _184  and  _185
REMARK   71  A    between atoms: _184  and  _187
REMARK   72  A    between atoms: _187  and  _188
REMARK   73  A    between atoms: _190  and  _192
REMARK   74  A    between atoms: _192  and  _193
REMARK   75  A    between atoms: _196  and  _197
REMARK   76  A    between atoms: _202  and  _204
REMARK   77  A    between atoms: _204  and  _205
REMARK   78  A    between atoms: _204  and  _207
REMARK   79  A    between atoms: _207  and  _208
REMARK   80  A    between atoms: _211  and  _213
REMARK   81  A    between atoms: _213  and  _214
REMARK   82  A    between atoms: _213  and  _216
REMARK   83  A    between atoms: _216  and  _217
REMARK   84  A    between atoms: _220  and  _222
REMARK   85  A    between atoms: _222  and  _223
REMARK   86  A    between atoms: _222  and  _225
REMARK   87  A    between atoms: _225  and  _226
REMARK   88  A    between atoms: _231  and  _232
REMARK   89  A    between atoms: _234  and  _236
REMARK   90  A    between atoms: _236  and  _237
REMARK   91  A    between atoms: _236  and  _239
REMARK   92  A    between atoms: _239  and  _240
REMARK   93  A    between atoms: _240  and  _241
REMARK   94  A    between atoms: _246  and  _248
REMARK   95  A    between atoms: _248  and  _249
REMARK   96  A    between atoms: _248  and  _251
REMARK   97  A    between atoms: _251  and  _252
REMARK   98  A    between atoms: _254  and  _256
REMARK   99  A    between atoms: _256  and  _257
REMARK  100  A    between atoms: _256  and  _259
REMARK  101  A    between atoms: _259  and  _260
REMARK  102  A    between atoms: _263  and  _265
REMARK  103  A    between atoms: _265  and  _266
REMARK  104  A    between atoms: _265  and  _268
REMARK  105  A    between atoms: _268  and  _269
REMARK  106  A    between atoms: _275  and  _277
REMARK  107  A    between atoms: _277  and  _278
REMARK  108  A    between atoms: _277  and  _280
REMARK  109  A    between atoms: _280  and  _281
REMARK  110  A    between atoms: _284  and  _286
REMARK  111  A    between atoms: _286  and  _287
REMARK  112  A    between atoms: _286  and  _289
REMARK  113  A    between atoms: _289  and  _290
REMARK  114  A    between atoms: _293  and  _295
REMARK  115  A    between atoms: _295  and  _296
REMARK  116  A    between atoms: _295  and  _298
REMARK  117  A    between atoms: _298  and  _299
REMARK  118  A    between atoms: _299  and  _300
REMARK  119  A    between atoms: _300  and  _301
REMARK  120  A    between atoms: _310  and  _312
REMARK  121  A    between atoms: _312  and  _313
REMARK  122  A    between atoms: _312  and  _315
REMARK  123  A    between atoms: _315  and  _316
REMARK  124  A    between atoms: _321  and  _323
REMARK  125  A    between atoms: _323  and  _324
REMARK  126  A    between atoms: _323  and  _326
REMARK  127  A    between atoms: _326  and  _327
REMARK  128  A    between atoms: _327  and  _328
REMARK  129  A    between atoms: _328  and  _329
REMARK  130  A    between atoms: _338  and  _340
REMARK  131  A    between atoms: _340  and  _341
REMARK  132  A    between atoms: _340  and  _343
REMARK  133  A    between atoms: _343  and  _344
REMARK  134  A    between atoms: _354  and  _356
REMARK  135  A    between atoms: _356  and  _357
REMARK  136  A    between atoms: _356  and  _359
REMARK  137  A    between atoms: _359  and  _360
REMARK  138  A    between atoms: _360  and  _361
REMARK  139  A    between atoms: _361  and  _362
REMARK  140  A    between atoms: _362  and  _363
REMARK  141  A    between atoms: _367  and  _369
REMARK  142  A    between atoms: _369  and  _370
REMARK  143  A    between atoms: _369  and  _372
REMARK  144  A    between atoms: _374  and  _376
REMARK  145  A    between atoms: _376  and  _377
REMARK  146  A    between atoms: _376  and  _379
REMARK  147  A    between atoms: _379  and  _380
REMARK  148  A    between atoms: _383  and  _385
REMARK  149  A    between atoms: _385  and  _386
REMARK  150  A    between atoms: _385  and  _388
REMARK  151  A    between atoms: _391  and  _393
REMARK  152  A    between atoms: _393  and  _394
REMARK  153  A    between atoms: _393  and  _396
REMARK  154  A    between atoms: _396  and  _397
REMARK  155  A    between atoms: _402  and  _404
REMARK  156  A    between atoms: _404  and  _405
REMARK  157  A    between atoms: _404  and  _407
REMARK  158  A    between atoms: _407  and  _408
REMARK  159  A    between atoms: _412  and  _413
REMARK  160  A    between atoms: _418  and  _420
REMARK  161  A    between atoms: _420  and  _421
REMARK  162  A    between atoms: _420  and  _423
REMARK  163  A    between atoms: _423  and  _424
REMARK  164  A    between atoms: _427  and  _429
REMARK  165  A    between atoms: _429  and  _430
REMARK  166  A    between atoms: _429  and  _432
REMARK  167  A    between atoms: _432  and  _433
REMARK  168  A    between atoms: _436  and  _438
REMARK  169  A    between atoms: _438  and  _439
REMARK  170  A    between atoms: _438  and  _441
REMARK  171  A    between atoms: _441  and  _442
REMARK  172  A    between atoms: _445  and  _447
REMARK  173  A    between atoms: _447  and  _448
REMARK  174  A    between atoms: _447  and  _450
REMARK  175  A    between atoms: _450  and  _451
REMARK  176  A    between atoms: _454  and  _456
REMARK  177  A    between atoms: _456  and  _457
REMARK  178  A    between atoms: _460  and  _462
REMARK  179  A    between atoms: _462  and  _463
REMARK  180  A    between atoms: _462  and  _465
REMARK  181  A    between atoms: _465  and  _466
REMARK  182  A    between atoms: _466  and  _467
REMARK  183  A    between atoms: _469  and  _471
REMARK  184  A    between atoms: _471  and  _472
REMARK  185  A    between atoms: _471  and  _474
REMARK  186  A    between atoms: _474  and  _475
REMARK  187  A    between atoms: _475  and  _476
REMARK  188  A    between atoms: _479  and  _481
REMARK  189  A    between atoms: _481  and  _482
REMARK  190  A    between atoms: _481  and  _484
REMARK  191  A    between atoms: _486  and  _488
REMARK  192  A    between atoms: _488  and  _489
REMARK  193  A    between atoms: _492  and  _494
REMARK  194  A    between atoms: _494  and  _495
REMARK  195  A    between atoms: _494  and  _497
REMARK  196  A    between atoms: _499  and  _501
REMARK  197  A    between atoms: _501  and  _502
REMARK  198  A    between atoms: _505  and  _507
REMARK  199  A    between atoms: _507  and  _508
REMARK  200  A    between atoms: _507  and  _510
REMARK  201  A    between atoms: _510  and  _511
REMARK  202  A    between atoms: _514  and  _516
REMARK  203  A    between atoms: _516  and  _517
REMARK  204  A    between atoms: _516  and  _519
REMARK  205  A    between atoms: _519  and  _520
REMARK  206  A    between atoms: _523  and  _525
REMARK  207  A    between atoms: _525  and  _526
REMARK  208  A    between atoms: _525  and  _528
REMARK  209  A    between atoms: _528  and  _529
REMARK  210  A    between atoms: _534  and  _535
REMARK  211  A    between atoms: _537  and  _539
REMARK  212  A    between atoms: _539  and  _540
REMARK  213  A    between atoms: _539  and  _542
REMARK  214  A    between atoms: _545  and  _547
REMARK  215  A    between atoms: _547  and  _548
REMARK  216  A    between atoms: _547  and  _550
REMARK  217  A    between atoms: _550  and  _551
REMARK  218  A    between atoms: _557  and  _559
REMARK  219  A    between atoms: _559  and  _560
REMARK  220  A    between atoms: _559  and  _562
REMARK  221  A    between atoms: _562  and  _563
REMARK  222  A    between atoms: _565  and  _567
REMARK  223  A    between atoms: _567  and  _568
REMARK  224  A    between atoms: _567  and  _570
REMARK  225  A    between atoms: _572  and  _574
REMARK  226  A    between atoms: _574  and  _575
REMARK  227  A    between atoms: _574  and  _577
REMARK  228  A    between atoms: _577  and  _578
REMARK  229  A    between atoms: _583  and  _584
REMARK                            x       y       z     vdW  Elec       q    Type
REMARK                         _______ _______ _______ _____ _____    ______ ____
ROOT
ATOM      1  O   HOH     1      16.808  35.507  13.274  0.00  0.00    +0.000 OA
ENDROOT
TORSDOF 0
REMARK  Name = ../refined-set-2016/2a14/2a14_pocket.pdb
REMARK  229 active torsions:
REMARK  status: ('A' for Active; 'I' for Inactive)
REMARK    1  A    between atoms: _1  and  _5
REMARK    2  A    between atoms: _5  and  _6
REMARK    3  A    between atoms: _5  and  _8
REMARK    4  A    between atoms: _8  and  _9
REMARK    5  A    between atoms: _15  and  _17
REMARK    6  A    between atoms: _17  and  _18
REMARK    7  A    between atoms: _17  and  _20
REMARK    8  A    between atoms: _20  and  _21
REMARK    9  A    between atoms: _24  and  _26
REMARK   10  A    between atoms: _26  and  _27
REMARK   11  A    between atoms: _29  and  _31
REMARK   12  A    between atoms: _31  and  _32
REMARK   13  A    between atoms: _34  and  _36
REMARK   14  A    between atoms: _36  and  _37
REMARK   15  A    between atoms: _36  and  _39
REMARK   16  A    between atoms: _39  and  _40
REMARK   17  A    between atoms: _45  and  _46
REMARK   18  A    between atoms: _48  and  _50
REMARK   19  A    between atoms: _50  and  _51
REMARK   20  A    between atoms: _50  and  _53
REMARK   21  A    between atoms: _53  and  _54
REMARK   22  A    between atoms: _54  and  _55
REMARK   23  A    between atoms: _60  and  _62
REMARK   24  A    between atoms: _62  and  _63
REMARK   25  A    between atoms: _62  and  _65
REMARK   26  A    between atoms: _65  and  _66
REMARK   27  A    between atoms: _73  and  _74
REMARK   28  A    between atoms: _79  and  _81
REMARK   29  A    between atoms: _81  and  _82
REMARK   30  A    between atoms: _81  and  _84
REMARK   31  A    between atoms: _84  and  _85
REMARK   32  A    between atoms: _90  and  _91
REMARK   33  A    between atoms: _93  and  _95
REMARK   34  A    between atoms: _95  and  _96
REMARK   35  A    between atoms: _95  and  _98
REMARK   36  A    between atoms: _98  and  _99
REMARK   37  A    between atoms: _102  and  _104
REMARK   38  A    between atoms: _104  and  _105
REMARK   39  A    between atoms: _104  and  _107
REMARK   40  A    between atoms: _107  and  _108
REMARK   41  A    between atoms: _113  and  _114
REMARK   42  A    between atoms: _116  and  _118
REMARK   43  A    between atoms: _118  and  _119
REMARK   44  A    between atoms: _118  and  _121
REMARK   45  A    between atoms: _121  and  _122
REMARK   46  A    between atoms: _127  and  _128
REMARK   47  A    between atoms: _130  and  _132
REMARK   48  A    between atoms: _132  and  _133
REMARK   49  A    between atoms: _132  and  _135
REMARK   50  A    between atoms: _135  and  _136
REMARK   51  A    between atoms: _139  and  _141
REMARK   52  A    between atoms: _141  and  _142
REMARK   53  A    between atoms: _141  and  _144
REMARK   54  A    between atoms: _144  and  _145
REMARK   55  A    between atoms: _150  and  _152
REMARK   56  A    between atoms: _152  and  _153
REMARK   57  A    between atoms: _152  and  _155
REMARK   58  A    between atoms: _155  and  _156
REMARK   59  A    between atoms: _159  and  _161
REMARK   60  A    between atoms: _161  and  _162
REMARK   61  A    between atoms: _161  and  _164
REMARK   62  A    between atoms: _164  and  _165
REMARK   63  A    between atoms: _168  and  _170
REMARK   64  A    between atoms: _170  and  _171
REMARK   65  A    between atoms: _170  and  _173
REMARK   66  A    between atoms: _173  and  _174
REMARK   67  A    between atoms: _177  and  _179
REMARK   68  A    between atoms: _179  and  _180
REMARK   69  A    between atoms: _182  and  _184
REMARK   70  A    between atoms: _184  and  _185
REMARK   71  A    between atoms: _184  and  _187
REMARK   72  A    between atoms: _187  and  _188
REMARK   73  A    between atoms: _190  and  _192
REMARK   74  A    between atoms: _192  and  _193
REMARK   75  A    between atoms: _196  and  _197
REMARK   76  A    between atoms: _202  and  _204
REMARK   77  A    between atoms: _204  and  _205
REMARK   78  A    between atoms: _204  and  _207
REMARK   79  A    between atoms: _207  and  _208
REMARK   80  A    between atoms: _211  and  _213
REMARK   81  A    between atoms: _213  and  _214
REMARK   82  A    between atoms: _213  and  _216
REMARK   83  A    between atoms: _216  and  _217
REMARK   84  A    between atoms: _220  and  _222
REMARK   85  A    between atoms: _222  and  _223
REMARK   86  A    between atoms: _222  and  _225
REMARK   87  A    between atoms: _225  and  _226
REMARK   88  A    between atoms: _231  and  _232
REMARK   89  A    between atoms: _234  and  _236
REMARK   90  A    between atoms: _236  and  _237
REMARK   91  A    between atoms: _236  and  _239
REMARK   92  A    between atoms: _239  and  _240
REMARK   93  A    between atoms: _240  and  _241
REMARK   94  A    between atoms: _246  and  _248
REMARK   95  A    between atoms: _248  and  _249
REMARK   96  A    between atoms: _248  and  _251
REMARK   97  A    between atoms: _251  and  _252
REMARK   98  A    between atoms: _254  and  _256
REMARK   99  A    between atoms: _256  and  _257
REMARK  100  A    between atoms: _256  and  _259
REMARK  101  A    between atoms: _259  and  _260
REMARK  102  A    between atoms: _263  and  _265
REMARK  103  A    between atoms: _265  and  _266
REMARK  104  A    between atoms: _265  and  _268
REMARK  105  A    between atoms: _268  and  _269
REMARK  106  A    between atoms: _275  and  _277
REMARK  107  A    between atoms: _277  and  _278
REMARK  108  A    between atoms: _277  and  _280
REMARK  109  A    between atoms: _280  and  _281
REMARK  110  A    between atoms: _284  and  _286
REMARK  111  A    between atoms: _286  and  _287
REMARK  112  A    between atoms: _286  and  _289
REMARK  113  A    between atoms: _289  and  _290
REMARK  114  A    between atoms: _293  and  _295
REMARK  115  A    between atoms: _295  and  _296
REMARK  116  A    between atoms: _295  and  _298
REMARK  117  A    between atoms: _298  and  _299
REMARK  118  A    between atoms: _299  and  _300
REMARK  119  A    between atoms: _300  and  _301
REMARK  120  A    between atoms: _310  and  _312
REMARK  121  A    between atoms: _312  and  _313
REMARK  122  A    between atoms: _312  and  _315
REMARK  123  A    between atoms: _315  and  _316
REMARK  124  A    between atoms: _321  and  _323
REMARK  125  A    between atoms: _323  and  _324
REMARK  126  A    between atoms: _323  and  _326
REMARK  127  A    between atoms: _326  and  _327
REMARK  128  A    between atoms: _327  and  _328
REMARK  129  A    between atoms: _328  and  _329
REMARK  130  A    between atoms: _338  and  _340
REMARK  131  A    between atoms: _340  and  _341
REMARK  132  A    between atoms: _340  and  _343
REMARK  133  A    between atoms: _343  and  _344
REMARK  134  A    between atoms: _354  and  _356
REMARK  135  A    between atoms: _356  and  _357
REMARK  136  A    between atoms: _356  and  _359
REMARK  137  A    between atoms: _359  and  _360
REMARK  138  A    between atoms: _360  and  _361
REMARK  139  A    between atoms: _361  and  _362
REMARK  140  A    between atoms: _362  and  _363
REMARK  141  A    between atoms: _367  and  _369
REMARK  142  A    between atoms: _369  and  _370
REMARK  143  A    between atoms: _369  and  _372
REMARK  144  A    between atoms: _374  and  _376
REMARK  145  A    between atoms: _376  and  _377
REMARK  146  A    between atoms: _376  and  _379
REMARK  147  A    between atoms: _379  and  _380
REMARK  148  A    between atoms: _383  and  _385
REMARK  149  A    between atoms: _385  and  _386
REMARK  150  A    between atoms: _385  and  _388
REMARK  151  A    between atoms: _391  and  _393
REMARK  152  A    between atoms: _393  and  _394
REMARK  153  A    between atoms: _393  and  _396
REMARK  154  A    between atoms: _396  and  _397
REMARK  155  A    between atoms: _402  and  _404
REMARK  156  A    between atoms: _404  and  _405
REMARK  157  A    between atoms: _404  and  _407
REMARK  158  A    between atoms: _407  and  _408
REMARK  159  A    between atoms: _412  and  _413
REMARK  160  A    between atoms: _418  and  _420
REMARK  161  A    between atoms: _420  and  _421
REMARK  162  A    between atoms: _420  and  _423
REMARK  163  A    between atoms: _423  and  _424
REMARK  164  A    between atoms: _427  and  _429
REMARK  165  A    between atoms: _429  and  _430
REMARK  166  A    between atoms: _429  and  _432
REMARK  167  A    between atoms: _432  and  _433
REMARK  168  A    between atoms: _436  and  _438
REMARK  169  A    between atoms: _438  and  _439
REMARK  170  A    between atoms: _438  and  _441
REMARK  171  A    between atoms: _441  and  _442
REMARK  172  A    between atoms: _445  and  _447
REMARK  173  A    between atoms: _447  and  _448
REMARK  174  A    between atoms: _447  and  _450
REMARK  175  A    between atoms: _450  and  _451
REMARK  176  A    between atoms: _454  and  _456
REMARK  177  A    between atoms: _456  and  _457
REMARK  178  A    between atoms: _460  and  _462
REMARK  179  A    between atoms: _462  and  _463
REMARK  180  A    between atoms: _462  and  _465
REMARK  181  A    between atoms: _465  and  _466
REMARK  182  A    between atoms: _466  and  _467
REMARK  183  A    between atoms: _469  and  _471
REMARK  184  A    between atoms: _471  and  _472
REMARK  185  A    between atoms: _471  and  _474
REMARK  186  A    between atoms: _474  and  _475
REMARK  187  A    between atoms: _475  and  _476
REMARK  188  A    between atoms: _479  and  _481
REMARK  189  A    between atoms: _481  and  _482
REMARK  190  A    between atoms: _481  and  _484
REMARK  191  A    between atoms: _486  and  _488
REMARK  192  A    between atoms: _488  and  _489
REMARK  193  A    between atoms: _492  and  _494
REMARK  194  A    between atoms: _494  and  _495
REMARK  195  A    between atoms: _494  and  _497
REMARK  196  A    between atoms: _499  and  _501
REMARK  197  A    between atoms: _501  and  _502
REMARK  198  A    between atoms: _505  and  _507
REMARK  199  A    between atoms: _507  and  _508
REMARK  200  A    between atoms: _507  and  _510
REMARK  201  A    between atoms: _510  and  _511
REMARK  202  A    between atoms: _514  and  _516
REMARK  203  A    between atoms: _516  and  _517
REMARK  204  A    between atoms: _516  and  _519
REMARK  205  A    between atoms: _519  and  _520
REMARK  206  A    between atoms: _523  and  _525
REMARK  207  A    between atoms: _525  and  _526
REMARK  208  A    between atoms: _525  and  _528
REMARK  209  A    between atoms: _528  and  _529
REMARK  210  A    between atoms: _534  and  _535
REMARK  211  A    between atoms: _537  and  _539
REMARK  212  A    between atoms: _539  and  _540
REMARK  213  A    between atoms: _539  and  _542
REMARK  214  A    between atoms: _545  and  _547
REMARK  215  A    between atoms: _547  and  _548
REMARK  216  A    between atoms: _547  and  _550
REMARK  217  A    between atoms: _550  and  _551
REMARK  218  A    between atoms: _557  and  _559
REMARK  219  A    between atoms: _559  and  _560
REMARK  220  A    between atoms: _559  and  _562
REMARK  221  A    between atoms: _562  and  _563
REMARK  222  A    between atoms: _565  and  _567
REMARK  223  A    between atoms: _567  and  _568
REMARK  224  A    between atoms: _567  and  _570
REMARK  225  A    between atoms: _572  and  _574
REMARK  226  A    between atoms: _574  and  _575
REMARK  227  A    between atoms: _574  and  _577
REMARK  228  A    between atoms: _577  and  _578
REMARK  229  A    between atoms: _583  and  _584
REMARK                            x       y       z     vdW  Elec       q    Type
REMARK                         _______ _______ _______ _____ _____    ______ ____
ROOT
ATOM      1  O   HOH     1      16.389  57.128   6.905  0.00  0.00    +0.000 OA
ENDROOT
TORSDOF 0
REMARK  Name = ../refined-set-2016/2a14/2a14_pocket.pdb
REMARK  229 active torsions:
REMARK  status: ('A' for Active; 'I' for Inactive)
REMARK    1  A    between atoms: _1  and  _5
REMARK    2  A    between atoms: _5  and  _6
REMARK    3  A    between atoms: _5  and  _8
REMARK    4  A    between atoms: _8  and  _9
REMARK    5  A    between atoms: _15  and  _17
REMARK    6  A    between atoms: _17  and  _18
REMARK    7  A    between atoms: _17  and  _20
REMARK    8  A    between atoms: _20  and  _21
REMARK    9  A    between atoms: _24  and  _26
REMARK   10  A    between atoms: _26  and  _27
REMARK   11  A    between atoms: _29  and  _31
REMARK   12  A    between atoms: _31  and  _32
REMARK   13  A    between atoms: _34  and  _36
REMARK   14  A    between atoms: _36  and  _37
REMARK   15  A    between atoms: _36  and  _39
REMARK   16  A    between atoms: _39  and  _40
REMARK   17  A    between atoms: _45  and  _46
REMARK   18  A    between atoms: _48  and  _50
REMARK   19  A    between atoms: _50  and  _51
REMARK   20  A    between atoms: _50  and  _53
REMARK   21  A    between atoms: _53  and  _54
REMARK   22  A    between atoms: _54  and  _55
REMARK   23  A    between atoms: _60  and  _62
REMARK   24  A    between atoms: _62  and  _63
REMARK   25  A    between atoms: _62  and  _65
REMARK   26  A    between atoms: _65  and  _66
REMARK   27  A    between atoms: _73  and  _74
REMARK   28  A    between atoms: _79  and  _81
REMARK   29  A    between atoms: _81  and  _82
REMARK   30  A    between atoms: _81  and  _84
REMARK   31  A    between atoms: _84  and  _85
REMARK   32  A    between atoms: _90  and  _91
REMARK   33  A    between atoms: _93  and  _95
REMARK   34  A    between atoms: _95  and  _96
REMARK   35  A    between atoms: _95  and  _98
REMARK   36  A    between atoms: _98  and  _99
REMARK   37  A    between atoms: _102  and  _104
REMARK   38  A    between atoms: _104  and  _105
REMARK   39  A    between atoms: _104  and  _107
REMARK   40  A    between atoms: _107  and  _108
REMARK   41  A    between atoms: _113  and  _114
REMARK   42  A    between atoms: _116  and  _118
REMARK   43  A    between atoms: _118  and  _119
REMARK   44  A    between atoms: _118  and  _121
REMARK   45  A    between atoms: _121  and  _122
REMARK   46  A    between atoms: _127  and  _128
REMARK   47  A    between atoms: _130  and  _132
REMARK   48  A    between atoms: _132  and  _133
REMARK   49  A    between atoms: _132  and  _135
REMARK   50  A    between atoms: _135  and  _136
REMARK   51  A    between atoms: _139  and  _141
REMARK   52  A    between atoms: _141  and  _142
REMARK   53  A    between atoms: _141  and  _144
REMARK   54  A    between atoms: _144  and  _145
REMARK   55  A    between atoms: _150  and  _152
REMARK   56  A    between atoms: _152  and  _153
REMARK   57  A    between atoms: _152  and  _155
REMARK   58  A    between atoms: _155  and  _156
REMARK   59  A    between atoms: _159  and  _161
REMARK   60  A    between atoms: _161  and  _162
REMARK   61  A    between atoms: _161  and  _164
REMARK   62  A    between atoms: _164  and  _165
REMARK   63  A    between atoms: _168  and  _170
REMARK   64  A    between atoms: _170  and  _171
REMARK   65  A    between atoms: _170  and  _173
REMARK   66  A    between atoms: _173  and  _174
REMARK   67  A    between atoms: _177  and  _179
REMARK   68  A    between atoms: _179  and  _180
REMARK   69  A    between atoms: _182  and  _184
REMARK   70  A    between atoms: _184  and  _185
REMARK   71  A    between atoms: _184  and  _187
REMARK   72  A    between atoms: _187  and  _188
REMARK   73  A    between atoms: _190  and  _192
REMARK   74  A    between atoms: _192  and  _193
REMARK   75  A    between atoms: _196  and  _197
REMARK   76  A    between atoms: _202  and  _204
REMARK   77  A    between atoms: _204  and  _205
REMARK   78  A    between atoms: _204  and  _207
REMARK   79  A    between atoms: _207  and  _208
REMARK   80  A    between atoms: _211  and  _213
REMARK   81  A    between atoms: _213  and  _214
REMARK   82  A    between atoms: _213  and  _216
REMARK   83  A    between atoms: _216  and  _217
REMARK   84  A    between atoms: _220  and  _222
REMARK   85  A    between atoms: _222  and  _223
REMARK   86  A    between atoms: _222  and  _225
REMARK   87  A    between atoms: _225  and  _226
REMARK   88  A    between atoms: _231  and  _232
REMARK   89  A    between atoms: _234  and  _236
REMARK   90  A    between atoms: _236  and  _237
REMARK   91  A    between atoms: _236  and  _239
REMARK   92  A    between atoms: _239  and  _240
REMARK   93  A    between atoms: _240  and  _241
REMARK   94  A    between atoms: _246  and  _248
REMARK   95  A    between atoms: _248  and  _249
REMARK   96  A    between atoms: _248  and  _251
REMARK   97  A    between atoms: _251  and  _252
REMARK   98  A    between atoms: _254  and  _256
REMARK   99  A    between atoms: _256  and  _257
REMARK  100  A    between atoms: _256  and  _259
REMARK  101  A    between atoms: _259  and  _260
REMARK  102  A    between atoms: _263  and  _265
REMARK  103  A    between atoms: _265  and  _266
REMARK  104  A    between atoms: _265  and  _268
REMARK  105  A    between atoms: _268  and  _269
REMARK  106  A    between atoms: _275  and  _277
REMARK  107  A    between atoms: _277  and  _278
REMARK  108  A    between atoms: _277  and  _280
REMARK  109  A    between atoms: _280  and  _281
REMARK  110  A    between atoms: _284  and  _286
REMARK  111  A    between atoms: _286  and  _287
REMARK  112  A    between atoms: _286  and  _289
REMARK  113  A    between atoms: _289  and  _290
REMARK  114  A    between atoms: _293  and  _295
REMARK  115  A    between atoms: _295  and  _296
REMARK  116  A    between atoms: _295  and  _298
REMARK  117  A    between atoms: _298  and  _299
REMARK  118  A    between atoms: _299  and  _300
REMARK  119  A    between atoms: _300  and  _301
REMARK  120  A    between atoms: _310  and  _312
REMARK  121  A    between atoms: _312  and  _313
REMARK  122  A    between atoms: _312  and  _315
REMARK  123  A    between atoms: _315  and  _316
REMARK  124  A    between atoms: _321  and  _323
REMARK  125  A    between atoms: _323  and  _324
REMARK  126  A    between atoms: _323  and  _326
REMARK  127  A    between atoms: _326  and  _327
REMARK  128  A    between atoms: _327  and  _328
REMARK  129  A    between atoms: _328  and  _329
REMARK  130  A    between atoms: _338  and  _340
REMARK  131  A    between atoms: _340  and  _341
REMARK  132  A    between atoms: _340  and  _343
REMARK  133  A    between atoms: _343  and  _344
REMARK  134  A    between atoms: _354  and  _356
REMARK  135  A    between atoms: _356  and  _357
REMARK  136  A    between atoms: _356  and  _359
REMARK  137  A    between atoms: _359  and  _360
REMARK  138  A    between atoms: _360  and  _361
REMARK  139  A    between atoms: _361  and  _362
REMARK  140  A    between atoms: _362  and  _363
REMARK  141  A    between atoms: _367  and  _369
REMARK  142  A    between atoms: _369  and  _370
REMARK  143  A    between atoms: _369  and  _372
REMARK  144  A    between atoms: _374  and  _376
REMARK  145  A    between atoms: _376  and  _377
REMARK  146  A    between atoms: _376  and  _379
REMARK  147  A    between atoms: _379  and  _380
REMARK  148  A    between atoms: _383  and  _385
REMARK  149  A    between atoms: _385  and  _386
REMARK  150  A    between atoms: _385  and  _388
REMARK  151  A    between atoms: _391  and  _393
REMARK  152  A    between atoms: _393  and  _394
REMARK  153  A    between atoms: _393  and  _396
REMARK  154  A    between atoms: _396  and  _397
REMARK  155  A    between atoms: _402  and  _404
REMARK  156  A    between atoms: _404  and  _405
REMARK  157  A    between atoms: _404  and  _407
REMARK  158  A    between atoms: _407  and  _408
REMARK  159  A    between atoms: _412  and  _413
REMARK  160  A    between atoms: _418  and  _420
REMARK  161  A    between atoms: _420  and  _421
REMARK  162  A    between atoms: _420  and  _423
REMARK  163  A    between atoms: _423  and  _424
REMARK  164  A    between atoms: _427  and  _429
REMARK  165  A    between atoms: _429  and  _430
REMARK  166  A    between atoms: _429  and  _432
REMARK  167  A    between atoms: _432  and  _433
REMARK  168  A    between atoms: _436  and  _438
REMARK  169  A    between atoms: _438  and  _439
REMARK  170  A    between atoms: _438  and  _441
REMARK  171  A    between atoms: _441  and  _442
REMARK  172  A    between atoms: _445  and  _447
REMARK  173  A    between atoms: _447  and  _448
REMARK  174  A    between atoms: _447  and  _450
REMARK  175  A    between atoms: _450  and  _451
REMARK  176  A    between atoms: _454  and  _456
REMARK  177  A    between atoms: _456  and  _457
REMARK  178  A    between atoms: _460  and  _462
REMARK  179  A    between atoms: _462  and  _463
REMARK  180  A    between atoms: _462  and  _465
REMARK  181  A    between atoms: _465  and  _466
REMARK  182  A    between atoms: _466  and  _467
REMARK  183  A    between atoms: _469  and  _471
REMARK  184  A    between atoms: _471  and  _472
REMARK  185  A    between atoms: _471  and  _474
REMARK  186  A    between atoms: _474  and  _475
REMARK  187  A    between atoms: _475  and  _476
REMARK  188  A    between atoms: _479  and  _481
REMARK  189  A    between atoms: _481  and  _482
REMARK  190  A    between atoms: _481  and  _484
REMARK  191  A    between atoms: _486  and  _488
REMARK  192  A    between atoms: _488  and  _489
REMARK  193  A    between atoms: _492  and  _494
REMARK  194  A    between atoms: _494  and  _495
REMARK  195  A    between atoms: _494  and  _497
REMARK  196  A    between atoms: _499  and  _501
REMARK  197  A    between atoms: _501  and  _502
REMARK  198  A    between atoms: _505  and  _507
REMARK  199  A    between atoms: _507  and  _508
REMARK  200  A    between atoms: _507  and  _510
REMARK  201  A    between atoms: _510  and  _511
REMARK  202  A    between atoms: _514  and  _516
REMARK  203  A    between atoms: _516  and  _517
REMARK  204  A    between atoms: _516  and  _519
REMARK  205  A    between atoms: _519  and  _520
REMARK  206  A    between atoms: _523  and  _525
REMARK  207  A    between atoms: _525  and  _526
REMARK  208  A    between atoms: _525  and  _528
REMARK  209  A    between atoms: _528  and  _529
REMARK  210  A    between atoms: _534  and  _535
REMARK  211  A    between atoms: _537  and  _539
REMARK  212  A    between atoms: _539  and  _540
REMARK  213  A    between atoms: _539  and  _542
REMARK  214  A    between atoms: _545  and  _547
REMARK  215  A    between atoms: _547  and  _548
REMARK  216  A    between atoms: _547  and  _550
REMARK  217  A    between atoms: _550  and  _551
REMARK  218  A    between atoms: _557  and  _559
REMARK  219  A    between atoms: _559  and  _560
REMARK  220  A    between atoms: _559  and  _562
REMARK  221  A    between atoms: _562  and  _563
REMARK  222  A    between atoms: _565  and  _567
REMARK  223  A    between atoms: _567  and  _568
REMARK  224  A    between atoms: _567  and  _570
REMARK  225  A    between atoms: _572  and  _574
REMARK  226  A    between atoms: _574  and  _575
REMARK  227  A    between atoms: _574  and  _577
REMARK  228  A    between atoms: _577  and  _578
REMARK  229  A    between atoms: _583  and  _584
REMARK                            x       y       z     vdW  Elec       q    Type
REMARK                         _______ _______ _______ _____ _____    ______ ____
ROOT
ATOM      1  O   HOH     1      24.367  52.565   9.963  0.00  0.00    +0.000 OA
ENDROOT
TORSDOF 0
REMARK  Name = ../refined-set-2016/2a14/2a14_pocket.pdb
REMARK  229 active torsions:
REMARK  status: ('A' for Active; 'I' for Inactive)
REMARK    1  A    between atoms: _1  and  _5
REMARK    2  A    between atoms: _5  and  _6
REMARK    3  A    between atoms: _5  and  _8
REMARK    4  A    between atoms: _8  and  _9
REMARK    5  A    between atoms: _15  and  _17
REMARK    6  A    between atoms: _17  and  _18
REMARK    7  A    between atoms: _17  and  _20
REMARK    8  A    between atoms: _20  and  _21
REMARK    9  A    between atoms: _24  and  _26
REMARK   10  A    between atoms: _26  and  _27
REMARK   11  A    between atoms: _29  and  _31
REMARK   12  A    between atoms: _31  and  _32
REMARK   13  A    between atoms: _34  and  _36
REMARK   14  A    between atoms: _36  and  _37
REMARK   15  A    between atoms: _36  and  _39
REMARK   16  A    between atoms: _39  and  _40
REMARK   17  A    between atoms: _45  and  _46
REMARK   18  A    between atoms: _48  and  _50
REMARK   19  A    between atoms: _50  and  _51
REMARK   20  A    between atoms: _50  and  _53
REMARK   21  A    between atoms: _53  and  _54
REMARK   22  A    between atoms: _54  and  _55
REMARK   23  A    between atoms: _60  and  _62
REMARK   24  A    between atoms: _62  and  _63
REMARK   25  A    between atoms: _62  and  _65
REMARK   26  A    between atoms: _65  and  _66
REMARK   27  A    between atoms: _73  and  _74
REMARK   28  A    between atoms: _79  and  _81
REMARK   29  A    between atoms: _81  and  _82
REMARK   30  A    between atoms: _81  and  _84
REMARK   31  A    between atoms: _84  and  _85
REMARK   32  A    between atoms: _90  and  _91
REMARK   33  A    between atoms: _93  and  _95
REMARK   34  A    between atoms: _95  and  _96
REMARK   35  A    between atoms: _95  and  _98
REMARK   36  A    between atoms: _98  and  _99
REMARK   37  A    between atoms: _102  and  _104
REMARK   38  A    between atoms: _104  and  _105
REMARK   39  A    between atoms: _104  and  _107
REMARK   40  A    between atoms: _107  and  _108
REMARK   41  A    between atoms: _113  and  _114
REMARK   42  A    between atoms: _116  and  _118
REMARK   43  A    between atoms: _118  and  _119
REMARK   44  A    between atoms: _118  and  _121
REMARK   45  A    between atoms: _121  and  _122
REMARK   46  A    between atoms: _127  and  _128
REMARK   47  A    between atoms: _130  and  _132
REMARK   48  A    between atoms: _132  and  _133
REMARK   49  A    between atoms: _132  and  _135
REMARK   50  A    between atoms: _135  and  _136
REMARK   51  A    between atoms: _139  and  _141
REMARK   52  A    between atoms: _141  and  _142
REMARK   53  A    between atoms: _141  and  _144
REMARK   54  A    between atoms: _144  and  _145
REMARK   55  A    between atoms: _150  and  _152
REMARK   56  A    between atoms: _152  and  _153
REMARK   57  A    between atoms: _152  and  _155
REMARK   58  A    between atoms: _155  and  _156
REMARK   59  A    between atoms: _159  and  _161
REMARK   60  A    between atoms: _161  and  _162
REMARK   61  A    between atoms: _161  and  _164
REMARK   62  A    between atoms: _164  and  _165
REMARK   63  A    between atoms: _168  and  _170
REMARK   64  A    between atoms: _170  and  _171
REMARK   65  A    between atoms: _170  and  _173
REMARK   66  A    between atoms: _173  and  _174
REMARK   67  A    between atoms: _177  and  _179
REMARK   68  A    between atoms: _179  and  _180
REMARK   69  A    between atoms: _182  and  _184
REMARK   70  A    between atoms: _184  and  _185
REMARK   71  A    between atoms: _184  and  _187
REMARK   72  A    between atoms: _187  and  _188
REMARK   73  A    between atoms: _190  and  _192
REMARK   74  A    between atoms: _192  and  _193
REMARK   75  A    between atoms: _196  and  _197
REMARK   76  A    between atoms: _202  and  _204
REMARK   77  A    between atoms: _204  and  _205
REMARK   78  A    between atoms: _204  and  _207
REMARK   79  A    between atoms: _207  and  _208
REMARK   80  A    between atoms: _211  and  _213
REMARK   81  A    between atoms: _213  and  _214
REMARK   82  A    between atoms: _213  and  _216
REMARK   83  A    between atoms: _216  and  _217
REMARK   84  A    between atoms: _220  and  _222
REMARK   85  A    between atoms: _222  and  _223
REMARK   86  A    between atoms: _222  and  _225
REMARK   87  A    between atoms: _225  and  _226
REMARK   88  A    between atoms: _231  and  _232
REMARK   89  A    between atoms: _234  and  _236
REMARK   90  A    between atoms: _236  and  _237
REMARK   91  A    between atoms: _236  and  _239
REMARK   92  A    between atoms: _239  and  _240
REMARK   93  A    between atoms: _240  and  _241
REMARK   94  A    between atoms: _246  and  _248
REMARK   95  A    between atoms: _248  and  _249
REMARK   96  A    between atoms: _248  and  _251
REMARK   97  A    between atoms: _251  and  _252
REMARK   98  A    between atoms: _254  and  _256
REMARK   99  A    between atoms: _256  and  _257
REMARK  100  A    between atoms: _256  and  _259
REMARK  101  A    between atoms: _259  and  _260
REMARK  102  A    between atoms: _263  and  _265
REMARK  103  A    between atoms: _265  and  _266
REMARK  104  A    between atoms: _265  and  _268
REMARK  105  A    between atoms: _268  and  _269
REMARK  106  A    between atoms: _275  and  _277
REMARK  107  A    between atoms: _277  and  _278
REMARK  108  A    between atoms: _277  and  _280
REMARK  109  A    between atoms: _280  and  _281
REMARK  110  A    between atoms: _284  and  _286
REMARK  111  A    between atoms: _286  and  _287
REMARK  112  A    between atoms: _286  and  _289
REMARK  113  A    between atoms: _289  and  _290
REMARK  114  A    between atoms: _293  and  _295
REMARK  115  A    between atoms: _295  and  _296
REMARK  116  A    between atoms: _295  and  _298
REMARK  117  A    between atoms: _298  and  _299
REMARK  118  A    between atoms: _299  and  _300
REMARK  119  A    between atoms: _300  and  _301
REMARK  120  A    between atoms: _310  and  _312
REMARK  121  A    between atoms: _312  and  _313
REMARK  122  A    between atoms: _312  and  _315
REMARK  123  A    between atoms: _315  and  _316
REMARK  124  A    between atoms: _321  and  _323
REMARK  125  A    between atoms: _323  and  _324
REMARK  126  A    between atoms: _323  and  _326
REMARK  127  A    between atoms: _326  and  _327
REMARK  128  A    between atoms: _327  and  _328
REMARK  129  A    between atoms: _328  and  _329
REMARK  130  A    between atoms: _338  and  _340
REMARK  131  A    between atoms: _340  and  _341
REMARK  132  A    between atoms: _340  and  _343
REMARK  133  A    between atoms: _343  and  _344
REMARK  134  A    between atoms: _354  and  _356
REMARK  135  A    between atoms: _356  and  _357
REMARK  136  A    between atoms: _356  and  _359
REMARK  137  A    between atoms: _359  and  _360
REMARK  138  A    between atoms: _360  and  _361
REMARK  139  A    between atoms: _361  and  _362
REMARK  140  A    between atoms: _362  and  _363
REMARK  141  A    between atoms: _367  and  _369
REMARK  142  A    between atoms: _369  and  _370
REMARK  143  A    between atoms: _369  and  _372
REMARK  144  A    between atoms: _374  and  _376
REMARK  145  A    between atoms: _376  and  _377
REMARK  146  A    between atoms: _376  and  _379
REMARK  147  A    between atoms: _379  and  _380
REMARK  148  A    between atoms: _383  and  _385
REMARK  149  A    between atoms: _385  and  _386
REMARK  150  A    between atoms: _385  and  _388
REMARK  151  A    between atoms: _391  and  _393
REMARK  152  A    between atoms: _393  and  _394
REMARK  153  A    between atoms: _393  and  _396
REMARK  154  A    between atoms: _396  and  _397
REMARK  155  A    between atoms: _402  and  _404
REMARK  156  A    between atoms: _404  and  _405
REMARK  157  A    between atoms: _404  and  _407
REMARK  158  A    between atoms: _407  and  _408
REMARK  159  A    between atoms: _412  and  _413
REMARK  160  A    between atoms: _418  and  _420
REMARK  161  A    between atoms: _420  and  _421
REMARK  162  A    between atoms: _420  and  _423
REMARK  163  A    between atoms: _423  and  _424
REMARK  164  A    between atoms: _427  and  _429
REMARK  165  A    between atoms: _429  and  _430
REMARK  166  A    between atoms: _429  and  _432
REMARK  167  A    between atoms: _432  and  _433
REMARK  168  A    between atoms: _436  and  _438
REMARK  169  A    between atoms: _438  and  _439
REMARK  170  A    between atoms: _438  and  _441
REMARK  171  A    between atoms: _441  and  _442
REMARK  172  A    between atoms: _445  and  _447
REMARK  173  A    between atoms: _447  and  _448
REMARK  174  A    between atoms: _447  and  _450
REMARK  175  A    between atoms: _450  and  _451
REMARK  176  A    between atoms: _454  and  _456
REMARK  177  A    between atoms: _456  and  _457
REMARK  178  A    between atoms: _460  and  _462
REMARK  179  A    between atoms: _462  and  _463
REMARK  180  A    between atoms: _462  and  _465
REMARK  181  A    between atoms: _465  and  _466
REMARK  182  A    between atoms: _466  and  _467
REMARK  183  A    between atoms: _469  and  _471
REMARK  184  A    between atoms: _471  and  _472
REMARK  185  A    between atoms: _471  and  _474
REMARK  186  A    between atoms: _474  and  _475
REMARK  187  A    between atoms: _475  and  _476
REMARK  188  A    between atoms: _479  and  _481
REMARK  189  A    between atoms: _481  and  _482
REMARK  190  A    between atoms: _481  and  _484
REMARK  191  A    between atoms: _486  and  _488
REMARK  192  A    between atoms: _488  and  _489
REMARK  193  A    between atoms: _492  and  _494
REMARK  194  A    between atoms: _494  and  _495
REMARK  195  A    between atoms: _494  and  _497
REMARK  196  A    between atoms: _499  and  _501
REMARK  197  A    between atoms: _501  and  _502
REMARK  198  A    between atoms: _505  and  _507
REMARK  199  A    between atoms: _507  and  _508
REMARK  200  A    between atoms: _507  and  _510
REMARK  201  A    between atoms: _510  and  _511
REMARK  202  A    between atoms: _514  and  _516
REMARK  203  A    between atoms: _516  and  _517
REMARK  204  A    between atoms: _516  and  _519
REMARK  205  A    between atoms: _519  and  _520
REMARK  206  A    between atoms: _523  and  _525
REMARK  207  A    between atoms: _525  and  _526
REMARK  208  A    between atoms: _525  and  _528
REMARK  209  A    between atoms: _528  and  _529
REMARK  210  A    between atoms: _534  and  _535
REMARK  211  A    between atoms: _537  and  _539
REMARK  212  A    between atoms: _539  and  _540
REMARK  213  A    between atoms: _539  and  _542
REMARK  214  A    between atoms: _545  and  _547
REMARK  215  A    between atoms: _547  and  _548
REMARK  216  A    between atoms: _547  and  _550
REMARK  217  A    between atoms: _550  and  _551
REMARK  218  A    between atoms: _557  and  _559
REMARK  219  A    between atoms: _559  and  _560
REMARK  220  A    between atoms: _559  and  _562
REMARK  221  A    between atoms: _562  and  _563
REMARK  222  A    between atoms: _565  and  _567
REMARK  223  A    between atoms: _567  and  _568
REMARK  224  A    between atoms: _567  and  _570
REMARK  225  A    between atoms: _572  and  _574
REMARK  226  A    between atoms: _574  and  _575
REMARK  227  A    between atoms: _574  and  _577
REMARK  228  A    between atoms: _577  and  _578
REMARK  229  A    between atoms: _583  and  _584
REMARK                            x       y       z     vdW  Elec       q    Type
REMARK                         _______ _______ _______ _____ _____    ______ ____
ROOT
ATOM      1  O   HOH     1      20.909  56.903   9.819  0.00  0.00    +0.000 OA
ENDROOT
TORSDOF 0
REMARK  Name = ../refined-set-2016/2a14/2a14_pocket.pdb
REMARK  229 active torsions:
REMARK  status: ('A' for Active; 'I' for Inactive)
REMARK    1  A    between atoms: _1  and  _5
REMARK    2  A    between atoms: _5  and  _6
REMARK    3  A    between atoms: _5  and  _8
REMARK    4  A    between atoms: _8  and  _9
REMARK    5  A    between atoms: _15  and  _17
REMARK    6  A    between atoms: _17  and  _18
REMARK    7  A    between atoms: _17  and  _20
REMARK    8  A    between atoms: _20  and  _21
REMARK    9  A    between atoms: _24  and  _26
REMARK   10  A    between atoms: _26  and  _27
REMARK   11  A    between atoms: _29  and  _31
REMARK   12  A    between atoms: _31  and  _32
REMARK   13  A    between atoms: _34  and  _36
REMARK   14  A    between atoms: _36  and  _37
REMARK   15  A    between atoms: _36  and  _39
REMARK   16  A    between atoms: _39  and  _40
REMARK   17  A    between atoms: _45  and  _46
REMARK   18  A    between atoms: _48  and  _50
REMARK   19  A    between atoms: _50  and  _51
REMARK   20  A    between atoms: _50  and  _53
REMARK   21  A    between atoms: _53  and  _54
REMARK   22  A    between atoms: _54  and  _55
REMARK   23  A    between atoms: _60  and  _62
REMARK   24  A    between atoms: _62  and  _63
REMARK   25  A    between atoms: _62  and  _65
REMARK   26  A    between atoms: _65  and  _66
REMARK   27  A    between atoms: _73  and  _74
REMARK   28  A    between atoms: _79  and  _81
REMARK   29  A    between atoms: _81  and  _82
REMARK   30  A    between atoms: _81  and  _84
REMARK   31  A    between atoms: _84  and  _85
REMARK   32  A    between atoms: _90  and  _91
REMARK   33  A    between atoms: _93  and  _95
REMARK   34  A    between atoms: _95  and  _96
REMARK   35  A    between atoms: _95  and  _98
REMARK   36  A    between atoms: _98  and  _99
REMARK   37  A    between atoms: _102  and  _104
REMARK   38  A    between atoms: _104  and  _105
REMARK   39  A    between atoms: _104  and  _107
REMARK   40  A    between atoms: _107  and  _108
REMARK   41  A    between atoms: _113  and  _114
REMARK   42  A    between atoms: _116  and  _118
REMARK   43  A    between atoms: _118  and  _119
REMARK   44  A    between atoms: _118  and  _121
REMARK   45  A    between atoms: _121  and  _122
REMARK   46  A    between atoms: _127  and  _128
REMARK   47  A    between atoms: _130  and  _132
REMARK   48  A    between atoms: _132  and  _133
REMARK   49  A    between atoms: _132  and  _135
REMARK   50  A    between atoms: _135  and  _136
REMARK   51  A    between atoms: _139  and  _141
REMARK   52  A    between atoms: _141  and  _142
REMARK   53  A    between atoms: _141  and  _144
REMARK   54  A    between atoms: _144  and  _145
REMARK   55  A    between atoms: _150  and  _152
REMARK   56  A    between atoms: _152  and  _153
REMARK   57  A    between atoms: _152  and  _155
REMARK   58  A    between atoms: _155  and  _156
REMARK   59  A    between atoms: _159  and  _161
REMARK   60  A    between atoms: _161  and  _162
REMARK   61  A    between atoms: _161  and  _164
REMARK   62  A    between atoms: _164  and  _165
REMARK   63  A    between atoms: _168  and  _170
REMARK   64  A    between atoms: _170  and  _171
REMARK   65  A    between atoms: _170  and  _173
REMARK   66  A    between atoms: _173  and  _174
REMARK   67  A    between atoms: _177  and  _179
REMARK   68  A    between atoms: _179  and  _180
REMARK   69  A    between atoms: _182  and  _184
REMARK   70  A    between atoms: _184  and  _185
REMARK   71  A    between atoms: _184  and  _187
REMARK   72  A    between atoms: _187  and  _188
REMARK   73  A    between atoms: _190  and  _192
REMARK   74  A    between atoms: _192  and  _193
REMARK   75  A    between atoms: _196  and  _197
REMARK   76  A    between atoms: _202  and  _204
REMARK   77  A    between atoms: _204  and  _205
REMARK   78  A    between atoms: _204  and  _207
REMARK   79  A    between atoms: _207  and  _208
REMARK   80  A    between atoms: _211  and  _213
REMARK   81  A    between atoms: _213  and  _214
REMARK   82  A    between atoms: _213  and  _216
REMARK   83  A    between atoms: _216  and  _217
REMARK   84  A    between atoms: _220  and  _222
REMARK   85  A    between atoms: _222  and  _223
REMARK   86  A    between atoms: _222  and  _225
REMARK   87  A    between atoms: _225  and  _226
REMARK   88  A    between atoms: _231  and  _232
REMARK   89  A    between atoms: _234  and  _236
REMARK   90  A    between atoms: _236  and  _237
REMARK   91  A    between atoms: _236  and  _239
REMARK   92  A    between atoms: _239  and  _240
REMARK   93  A    between atoms: _240  and  _241
REMARK   94  A    between atoms: _246  and  _248
REMARK   95  A    between atoms: _248  and  _249
REMARK   96  A    between atoms: _248  and  _251
REMARK   97  A    between atoms: _251  and  _252
REMARK   98  A    between atoms: _254  and  _256
REMARK   99  A    between atoms: _256  and  _257
REMARK  100  A    between atoms: _256  and  _259
REMARK  101  A    between atoms: _259  and  _260
REMARK  102  A    between atoms: _263  and  _265
REMARK  103  A    between atoms: _265  and  _266
REMARK  104  A    between atoms: _265  and  _268
REMARK  105  A    between atoms: _268  and  _269
REMARK  106  A    between atoms: _275  and  _277
REMARK  107  A    between atoms: _277  and  _278
REMARK  108  A    between atoms: _277  and  _280
REMARK  109  A    between atoms: _280  and  _281
REMARK  110  A    between atoms: _284  and  _286
REMARK  111  A    between atoms: _286  and  _287
REMARK  112  A    between atoms: _286  and  _289
REMARK  113  A    between atoms: _289  and  _290
REMARK  114  A    between atoms: _293  and  _295
REMARK  115  A    between atoms: _295  and  _296
REMARK  116  A    between atoms: _295  and  _298
REMARK  117  A    between atoms: _298  and  _299
REMARK  118  A    between atoms: _299  and  _300
REMARK  119  A    between atoms: _300  and  _301
REMARK  120  A    between atoms: _310  and  _312
REMARK  121  A    between atoms: _312  and  _313
REMARK  122  A    between atoms: _312  and  _315
REMARK  123  A    between atoms: _315  and  _316
REMARK  124  A    between atoms: _321  and  _323
REMARK  125  A    between atoms: _323  and  _324
REMARK  126  A    between atoms: _323  and  _326
REMARK  127  A    between atoms: _326  and  _327
REMARK  128  A    between atoms: _327  and  _328
REMARK  129  A    between atoms: _328  and  _329
REMARK  130  A    between atoms: _338  and  _340
REMARK  131  A    between atoms: _340  and  _341
REMARK  132  A    between atoms: _340  and  _343
REMARK  133  A    between atoms: _343  and  _344
REMARK  134  A    between atoms: _354  and  _356
REMARK  135  A    between atoms: _356  and  _357
REMARK  136  A    between atoms: _356  and  _359
REMARK  137  A    between atoms: _359  and  _360
REMARK  138  A    between atoms: _360  and  _361
REMARK  139  A    between atoms: _361  and  _362
REMARK  140  A    between atoms: _362  and  _363
REMARK  141  A    between atoms: _367  and  _369
REMARK  142  A    between atoms: _369  and  _370
REMARK  143  A    between atoms: _369  and  _372
REMARK  144  A    between atoms: _374  and  _376
REMARK  145  A    between atoms: _376  and  _377
REMARK  146  A    between atoms: _376  and  _379
REMARK  147  A    between atoms: _379  and  _380
REMARK  148  A    between atoms: _383  and  _385
REMARK  149  A    between atoms: _385  and  _386
REMARK  150  A    between atoms: _385  and  _388
REMARK  151  A    between atoms: _391  and  _393
REMARK  152  A    between atoms: _393  and  _394
REMARK  153  A    between atoms: _393  and  _396
REMARK  154  A    between atoms: _396  and  _397
REMARK  155  A    between atoms: _402  and  _404
REMARK  156  A    between atoms: _404  and  _405
REMARK  157  A    between atoms: _404  and  _407
REMARK  158  A    between atoms: _407  and  _408
REMARK  159  A    between atoms: _412  and  _413
REMARK  160  A    between atoms: _418  and  _420
REMARK  161  A    between atoms: _420  and  _421
REMARK  162  A    between atoms: _420  and  _423
REMARK  163  A    between atoms: _423  and  _424
REMARK  164  A    between atoms: _427  and  _429
REMARK  165  A    between atoms: _429  and  _430
REMARK  166  A    between atoms: _429  and  _432
REMARK  167  A    between atoms: _432  and  _433
REMARK  168  A    between atoms: _436  and  _438
REMARK  169  A    between atoms: _438  and  _439
REMARK  170  A    between atoms: _438  and  _441
REMARK  171  A    between atoms: _441  and  _442
REMARK  172  A    between atoms: _445  and  _447
REMARK  173  A    between atoms: _447  and  _448
REMARK  174  A    between atoms: _447  and  _450
REMARK  175  A    between atoms: _450  and  _451
REMARK  176  A    between atoms: _454  and  _456
REMARK  177  A    between atoms: _456  and  _457
REMARK  178  A    between atoms: _460  and  _462
REMARK  179  A    between atoms: _462  and  _463
REMARK  180  A    between atoms: _462  and  _465
REMARK  181  A    between atoms: _465  and  _466
REMARK  182  A    between atoms: _466  and  _467
REMARK  183  A    between atoms: _469  and  _471
REMARK  184  A    between atoms: _471  and  _472
REMARK  185  A    between atoms: _471  and  _474
REMARK  186  A    between atoms: _474  and  _475
REMARK  187  A    between atoms: _475  and  _476
REMARK  188  A    between atoms: _479  and  _481
REMARK  189  A    between atoms: _481  and  _482
REMARK  190  A    between atoms: _481  and  _484
REMARK  191  A    between atoms: _486  and  _488
REMARK  192  A    between atoms: _488  and  _489
REMARK  193  A    between atoms: _492  and  _494
REMARK  194  A    between atoms: _494  and  _495
REMARK  195  A    between atoms: _494  and  _497
REMARK  196  A    between atoms: _499  and  _501
REMARK  197  A    between atoms: _501  and  _502
REMARK  198  A    between atoms: _505  and  _507
REMARK  199  A    between atoms: _507  and  _508
REMARK  200  A    between atoms: _507  and  _510
REMARK  201  A    between atoms: _510  and  _511
REMARK  202  A    between atoms: _514  and  _516
REMARK  203  A    between atoms: _516  and  _517
REMARK  204  A    between atoms: _516  and  _519
REMARK  205  A    between atoms: _519  and  _520
REMARK  206  A    between atoms: _523  and  _525
REMARK  207  A    between atoms: _525  and  _526
REMARK  208  A    between atoms: _525  and  _528
REMARK  209  A    between atoms: _528  and  _529
REMARK  210  A    between atoms: _534  and  _535
REMARK  211  A    between atoms: _537  and  _539
REMARK  212  A    between atoms: _539  and  _540
REMARK  213  A    between atoms: _539  and  _542
REMARK  214  A    between atoms: _545  and  _547
REMARK  215  A    between atoms: _547  and  _548
REMARK  216  A    between atoms: _547  and  _550
REMARK  217  A    between atoms: _550  and  _551
REMARK  218  A    between atoms: _557  and  _559
REMARK  219  A    between atoms: _559  and  _560
REMARK  220  A    between atoms: _559  and  _562
REMARK  221  A    between atoms: _562  and  _563
REMARK  222  A    between atoms: _565  and  _567
REMARK  223  A    between atoms: _567  and  _568
REMARK  224  A    between atoms: _567  and  _570
REMARK  225  A    between atoms: _572  and  _574
REMARK  226  A    between atoms: _574  and  _575
REMARK  227  A    between atoms: _574  and  _577
REMARK  228  A    between atoms: _577  and  _578
REMARK  229  A    between atoms: _583  and  _584
REMARK                            x       y       z     vdW  Elec       q    Type
REMARK                         _______ _______ _______ _____ _____    ______ ____
ROOT
ATOM      1  O   HOH     1      31.716  44.904   1.606  0.00  0.00    +0.000 OA
ENDROOT
TORSDOF 0
REMARK  Name = ../refined-set-2016/2a14/2a14_pocket.pdb
REMARK  229 active torsions:
REMARK  status: ('A' for Active; 'I' for Inactive)
REMARK    1  A    between atoms: _1  and  _5
REMARK    2  A    between atoms: _5  and  _6
REMARK    3  A    between atoms: _5  and  _8
REMARK    4  A    between atoms: _8  and  _9
REMARK    5  A    between atoms: _15  and  _17
REMARK    6  A    between atoms: _17  and  _18
REMARK    7  A    between atoms: _17  and  _20
REMARK    8  A    between atoms: _20  and  _21
REMARK    9  A    between atoms: _24  and  _26
REMARK   10  A    between atoms: _26  and  _27
REMARK   11  A    between atoms: _29  and  _31
REMARK   12  A    between atoms: _31  and  _32
REMARK   13  A    between atoms: _34  and  _36
REMARK   14  A    between atoms: _36  and  _37
REMARK   15  A    between atoms: _36  and  _39
REMARK   16  A    between atoms: _39  and  _40
REMARK   17  A    between atoms: _45  and  _46
REMARK   18  A    between atoms: _48  and  _50
REMARK   19  A    between atoms: _50  and  _51
REMARK   20  A    between atoms: _50  and  _53
REMARK   21  A    between atoms: _53  and  _54
REMARK   22  A    between atoms: _54  and  _55
REMARK   23  A    between atoms: _60  and  _62
REMARK   24  A    between atoms: _62  and  _63
REMARK   25  A    between atoms: _62  and  _65
REMARK   26  A    between atoms: _65  and  _66
REMARK   27  A    between atoms: _73  and  _74
REMARK   28  A    between atoms: _79  and  _81
REMARK   29  A    between atoms: _81  and  _82
REMARK   30  A    between atoms: _81  and  _84
REMARK   31  A    between atoms: _84  and  _85
REMARK   32  A    between atoms: _90  and  _91
REMARK   33  A    between atoms: _93  and  _95
REMARK   34  A    between atoms: _95  and  _96
REMARK   35  A    between atoms: _95  and  _98
REMARK   36  A    between atoms: _98  and  _99
REMARK   37  A    between atoms: _102  and  _104
REMARK   38  A    between atoms: _104  and  _105
REMARK   39  A    between atoms: _104  and  _107
REMARK   40  A    between atoms: _107  and  _108
REMARK   41  A    between atoms: _113  and  _114
REMARK   42  A    between atoms: _116  and  _118
REMARK   43  A    between atoms: _118  and  _119
REMARK   44  A    between atoms: _118  and  _121
REMARK   45  A    between atoms: _121  and  _122
REMARK   46  A    between atoms: _127  and  _128
REMARK   47  A    between atoms: _130  and  _132
REMARK   48  A    between atoms: _132  and  _133
REMARK   49  A    between atoms: _132  and  _135
REMARK   50  A    between atoms: _135  and  _136
REMARK   51  A    between atoms: _139  and  _141
REMARK   52  A    between atoms: _141  and  _142
REMARK   53  A    between atoms: _141  and  _144
REMARK   54  A    between atoms: _144  and  _145
REMARK   55  A    between atoms: _150  and  _152
REMARK   56  A    between atoms: _152  and  _153
REMARK   57  A    between atoms: _152  and  _155
REMARK   58  A    between atoms: _155  and  _156
REMARK   59  A    between atoms: _159  and  _161
REMARK   60  A    between atoms: _161  and  _162
REMARK   61  A    between atoms: _161  and  _164
REMARK   62  A    between atoms: _164  and  _165
REMARK   63  A    between atoms: _168  and  _170
REMARK   64  A    between atoms: _170  and  _171
REMARK   65  A    between atoms: _170  and  _173
REMARK   66  A    between atoms: _173  and  _174
REMARK   67  A    between atoms: _177  and  _179
REMARK   68  A    between atoms: _179  and  _180
REMARK   69  A    between atoms: _182  and  _184
REMARK   70  A    between atoms: _184  and  _185
REMARK   71  A    between atoms: _184  and  _187
REMARK   72  A    between atoms: _187  and  _188
REMARK   73  A    between atoms: _190  and  _192
REMARK   74  A    between atoms: _192  and  _193
REMARK   75  A    between atoms: _196  and  _197
REMARK   76  A    between atoms: _202  and  _204
REMARK   77  A    between atoms: _204  and  _205
REMARK   78  A    between atoms: _204  and  _207
REMARK   79  A    between atoms: _207  and  _208
REMARK   80  A    between atoms: _211  and  _213
REMARK   81  A    between atoms: _213  and  _214
REMARK   82  A    between atoms: _213  and  _216
REMARK   83  A    between atoms: _216  and  _217
REMARK   84  A    between atoms: _220  and  _222
REMARK   85  A    between atoms: _222  and  _223
REMARK   86  A    between atoms: _222  and  _225
REMARK   87  A    between atoms: _225  and  _226
REMARK   88  A    between atoms: _231  and  _232
REMARK   89  A    between atoms: _234  and  _236
REMARK   90  A    between atoms: _236  and  _237
REMARK   91  A    between atoms: _236  and  _239
REMARK   92  A    between atoms: _239  and  _240
REMARK   93  A    between atoms: _240  and  _241
REMARK   94  A    between atoms: _246  and  _248
REMARK   95  A    between atoms: _248  and  _249
REMARK   96  A    between atoms: _248  and  _251
REMARK   97  A    between atoms: _251  and  _252
REMARK   98  A    between atoms: _254  and  _256
REMARK   99  A    between atoms: _256  and  _257
REMARK  100  A    between atoms: _256  and  _259
REMARK  101  A    between atoms: _259  and  _260
REMARK  102  A    between atoms: _263  and  _265
REMARK  103  A    between atoms: _265  and  _266
REMARK  104  A    between atoms: _265  and  _268
REMARK  105  A    between atoms: _268  and  _269
REMARK  106  A    between atoms: _275  and  _277
REMARK  107  A    between atoms: _277  and  _278
REMARK  108  A    between atoms: _277  and  _280
REMARK  109  A    between atoms: _280  and  _281
REMARK  110  A    between atoms: _284  and  _286
REMARK  111  A    between atoms: _286  and  _287
REMARK  112  A    between atoms: _286  and  _289
REMARK  113  A    between atoms: _289  and  _290
REMARK  114  A    between atoms: _293  and  _295
REMARK  115  A    between atoms: _295  and  _296
REMARK  116  A    between atoms: _295  and  _298
REMARK  117  A    between atoms: _298  and  _299
REMARK  118  A    between atoms: _299  and  _300
REMARK  119  A    between atoms: _300  and  _301
REMARK  120  A    between atoms: _310  and  _312
REMARK  121  A    between atoms: _312  and  _313
REMARK  122  A    between atoms: _312  and  _315
REMARK  123  A    between atoms: _315  and  _316
REMARK  124  A    between atoms: _321  and  _323
REMARK  125  A    between atoms: _323  and  _324
REMARK  126  A    between atoms: _323  and  _326
REMARK  127  A    between atoms: _326  and  _327
REMARK  128  A    between atoms: _327  and  _328
REMARK  129  A    between atoms: _328  and  _329
REMARK  130  A    between atoms: _338  and  _340
REMARK  131  A    between atoms: _340  and  _341
REMARK  132  A    between atoms: _340  and  _343
REMARK  133  A    between atoms: _343  and  _344
REMARK  134  A    between atoms: _354  and  _356
REMARK  135  A    between atoms: _356  and  _357
REMARK  136  A    between atoms: _356  and  _359
REMARK  137  A    between atoms: _359  and  _360
REMARK  138  A    between atoms: _360  and  _361
REMARK  139  A    between atoms: _361  and  _362
REMARK  140  A    between atoms: _362  and  _363
REMARK  141  A    between atoms: _367  and  _369
REMARK  142  A    between atoms: _369  and  _370
REMARK  143  A    between atoms: _369  and  _372
REMARK  144  A    between atoms: _374  and  _376
REMARK  145  A    between atoms: _376  and  _377
REMARK  146  A    between atoms: _376  and  _379
REMARK  147  A    between atoms: _379  and  _380
REMARK  148  A    between atoms: _383  and  _385
REMARK  149  A    between atoms: _385  and  _386
REMARK  150  A    between atoms: _385  and  _388
REMARK  151  A    between atoms: _391  and  _393
REMARK  152  A    between atoms: _393  and  _394
REMARK  153  A    between atoms: _393  and  _396
REMARK  154  A    between atoms: _396  and  _397
REMARK  155  A    between atoms: _402  and  _404
REMARK  156  A    between atoms: _404  and  _405
REMARK  157  A    between atoms: _404  and  _407
REMARK  158  A    between atoms: _407  and  _408
REMARK  159  A    between atoms: _412  and  _413
REMARK  160  A    between atoms: _418  and  _420
REMARK  161  A    between atoms: _420  and  _421
REMARK  162  A    between atoms: _420  and  _423
REMARK  163  A    between atoms: _423  and  _424
REMARK  164  A    between atoms: _427  and  _429
REMARK  165  A    between atoms: _429  and  _430
REMARK  166  A    between atoms: _429  and  _432
REMARK  167  A    between atoms: _432  and  _433
REMARK  168  A    between atoms: _436  and  _438
REMARK  169  A    between atoms: _438  and  _439
REMARK  170  A    between atoms: _438  and  _441
REMARK  171  A    between atoms: _441  and  _442
REMARK  172  A    between atoms: _445  and  _447
REMARK  173  A    between atoms: _447  and  _448
REMARK  174  A    between atoms: _447  and  _450
REMARK  175  A    between atoms: _450  and  _451
REMARK  176  A    between atoms: _454  and  _456
REMARK  177  A    between atoms: _456  and  _457
REMARK  178  A    between atoms: _460  and  _462
REMARK  179  A    between atoms: _462  and  _463
REMARK  180  A    between atoms: _462  and  _465
REMARK  181  A    between atoms: _465  and  _466
REMARK  182  A    between atoms: _466  and  _467
REMARK  183  A    between atoms: _469  and  _471
REMARK  184  A    between atoms: _471  and  _472
REMARK  185  A    between atoms: _471  and  _474
REMARK  186  A    between atoms: _474  and  _475
REMARK  187  A    between atoms: _475  and  _476
REMARK  188  A    between atoms: _479  and  _481
REMARK  189  A    between atoms: _481  and  _482
REMARK  190  A    between atoms: _481  and  _484
REMARK  191  A    between atoms: _486  and  _488
REMARK  192  A    between atoms: _488  and  _489
REMARK  193  A    between atoms: _492  and  _494
REMARK  194  A    between atoms: _494  and  _495
REMARK  195  A    between atoms: _494  and  _497
REMARK  196  A    between atoms: _499  and  _501
REMARK  197  A    between atoms: _501  and  _502
REMARK  198  A    between atoms: _505  and  _507
REMARK  199  A    between atoms: _507  and  _508
REMARK  200  A    between atoms: _507  and  _510
REMARK  201  A    between atoms: _510  and  _511
REMARK  202  A    between atoms: _514  and  _516
REMARK  203  A    between atoms: _516  and  _517
REMARK  204  A    between atoms: _516  and  _519
REMARK  205  A    between atoms: _519  and  _520
REMARK  206  A    between atoms: _523  and  _525
REMARK  207  A    between atoms: _525  and  _526
REMARK  208  A    between atoms: _525  and  _528
REMARK  209  A    between atoms: _528  and  _529
REMARK  210  A    between atoms: _534  and  _535
REMARK  211  A    between atoms: _537  and  _539
REMARK  212  A    between atoms: _539  and  _540
REMARK  213  A    between atoms: _539  and  _542
REMARK  214  A    between atoms: _545  and  _547
REMARK  215  A    between atoms: _547  and  _548
REMARK  216  A    between atoms: _547  and  _550
REMARK  217  A    between atoms: _550  and  _551
REMARK  218  A    between atoms: _557  and  _559
REMARK  219  A    between atoms: _559  and  _560
REMARK  220  A    between atoms: _559  and  _562
REMARK  221  A    between atoms: _562  and  _563
REMARK  222  A    between atoms: _565  and  _567
REMARK  223  A    between atoms: _567  and  _568
REMARK  224  A    between atoms: _567  and  _570
REMARK  225  A    between atoms: _572  and  _574
REMARK  226  A    between atoms: _574  and  _575
REMARK  227  A    between atoms: _574  and  _577
REMARK  228  A    between atoms: _577  and  _578
REMARK  229  A    between atoms: _583  and  _584
REMARK                            x       y       z     vdW  Elec       q    Type
REMARK                         _______ _______ _______ _____ _____    ______ ____
ROOT
ATOM      1  O   HOH     1      32.317  44.621   4.290  0.00  0.00    +0.000 OA
ENDROOT
TORSDOF 0
REMARK  Name = ../refined-set-2016/2a14/2a14_pocket.pdb
REMARK  229 active torsions:
REMARK  status: ('A' for Active; 'I' for Inactive)
REMARK    1  A    between atoms: _1  and  _5
REMARK    2  A    between atoms: _5  and  _6
REMARK    3  A    between atoms: _5  and  _8
REMARK    4  A    between atoms: _8  and  _9
REMARK    5  A    between atoms: _15  and  _17
REMARK    6  A    between atoms: _17  and  _18
REMARK    7  A    between atoms: _17  and  _20
REMARK    8  A    between atoms: _20  and  _21
REMARK    9  A    between atoms: _24  and  _26
REMARK   10  A    between atoms: _26  and  _27
REMARK   11  A    between atoms: _29  and  _31
REMARK   12  A    between atoms: _31  and  _32
REMARK   13  A    between atoms: _34  and  _36
REMARK   14  A    between atoms: _36  and  _37
REMARK   15  A    between atoms: _36  and  _39
REMARK   16  A    between atoms: _39  and  _40
REMARK   17  A    between atoms: _45  and  _46
REMARK   18  A    between atoms: _48  and  _50
REMARK   19  A    between atoms: _50  and  _51
REMARK   20  A    between atoms: _50  and  _53
REMARK   21  A    between atoms: _53  and  _54
REMARK   22  A    between atoms: _54  and  _55
REMARK   23  A    between atoms: _60  and  _62
REMARK   24  A    between atoms: _62  and  _63
REMARK   25  A    between atoms: _62  and  _65
REMARK   26  A    between atoms: _65  and  _66
REMARK   27  A    between atoms: _73  and  _74
REMARK   28  A    between atoms: _79  and  _81
REMARK   29  A    between atoms: _81  and  _82
REMARK   30  A    between atoms: _81  and  _84
REMARK   31  A    between atoms: _84  and  _85
REMARK   32  A    between atoms: _90  and  _91
REMARK   33  A    between atoms: _93  and  _95
REMARK   34  A    between atoms: _95  and  _96
REMARK   35  A    between atoms: _95  and  _98
REMARK   36  A    between atoms: _98  and  _99
REMARK   37  A    between atoms: _102  and  _104
REMARK   38  A    between atoms: _104  and  _105
REMARK   39  A    between atoms: _104  and  _107
REMARK   40  A    between atoms: _107  and  _108
REMARK   41  A    between atoms: _113  and  _114
REMARK   42  A    between atoms: _116  and  _118
REMARK   43  A    between atoms: _118  and  _119
REMARK   44  A    between atoms: _118  and  _121
REMARK   45  A    between atoms: _121  and  _122
REMARK   46  A    between atoms: _127  and  _128
REMARK   47  A    between atoms: _130  and  _132
REMARK   48  A    between atoms: _132  and  _133
REMARK   49  A    between atoms: _132  and  _135
REMARK   50  A    between atoms: _135  and  _136
REMARK   51  A    between atoms: _139  and  _141
REMARK   52  A    between atoms: _141  and  _142
REMARK   53  A    between atoms: _141  and  _144
REMARK   54  A    between atoms: _144  and  _145
REMARK   55  A    between atoms: _150  and  _152
REMARK   56  A    between atoms: _152  and  _153
REMARK   57  A    between atoms: _152  and  _155
REMARK   58  A    between atoms: _155  and  _156
REMARK   59  A    between atoms: _159  and  _161
REMARK   60  A    between atoms: _161  and  _162
REMARK   61  A    between atoms: _161  and  _164
REMARK   62  A    between atoms: _164  and  _165
REMARK   63  A    between atoms: _168  and  _170
REMARK   64  A    between atoms: _170  and  _171
REMARK   65  A    between atoms: _170  and  _173
REMARK   66  A    between atoms: _173  and  _174
REMARK   67  A    between atoms: _177  and  _179
REMARK   68  A    between atoms: _179  and  _180
REMARK   69  A    between atoms: _182  and  _184
REMARK   70  A    between atoms: _184  and  _185
REMARK   71  A    between atoms: _184  and  _187
REMARK   72  A    between atoms: _187  and  _188
REMARK   73  A    between atoms: _190  and  _192
REMARK   74  A    between atoms: _192  and  _193
REMARK   75  A    between atoms: _196  and  _197
REMARK   76  A    between atoms: _202  and  _204
REMARK   77  A    between atoms: _204  and  _205
REMARK   78  A    between atoms: _204  and  _207
REMARK   79  A    between atoms: _207  and  _208
REMARK   80  A    between atoms: _211  and  _213
REMARK   81  A    between atoms: _213  and  _214
REMARK   82  A    between atoms: _213  and  _216
REMARK   83  A    between atoms: _216  and  _217
REMARK   84  A    between atoms: _220  and  _222
REMARK   85  A    between atoms: _222  and  _223
REMARK   86  A    between atoms: _222  and  _225
REMARK   87  A    between atoms: _225  and  _226
REMARK   88  A    between atoms: _231  and  _232
REMARK   89  A    between atoms: _234  and  _236
REMARK   90  A    between atoms: _236  and  _237
REMARK   91  A    between atoms: _236  and  _239
REMARK   92  A    between atoms: _239  and  _240
REMARK   93  A    between atoms: _240  and  _241
REMARK   94  A    between atoms: _246  and  _248
REMARK   95  A    between atoms: _248  and  _249
REMARK   96  A    between atoms: _248  and  _251
REMARK   97  A    between atoms: _251  and  _252
REMARK   98  A    between atoms: _254  and  _256
REMARK   99  A    between atoms: _256  and  _257
REMARK  100  A    between atoms: _256  and  _259
REMARK  101  A    between atoms: _259  and  _260
REMARK  102  A    between atoms: _263  and  _265
REMARK  103  A    between atoms: _265  and  _266
REMARK  104  A    between atoms: _265  and  _268
REMARK  105  A    between atoms: _268  and  _269
REMARK  106  A    between atoms: _275  and  _277
REMARK  107  A    between atoms: _277  and  _278
REMARK  108  A    between atoms: _277  and  _280
REMARK  109  A    between atoms: _280  and  _281
REMARK  110  A    between atoms: _284  and  _286
REMARK  111  A    between atoms: _286  and  _287
REMARK  112  A    between atoms: _286  and  _289
REMARK  113  A    between atoms: _289  and  _290
REMARK  114  A    between atoms: _293  and  _295
REMARK  115  A    between atoms: _295  and  _296
REMARK  116  A    between atoms: _295  and  _298
REMARK  117  A    between atoms: _298  and  _299
REMARK  118  A    between atoms: _299  and  _300
REMARK  119  A    between atoms: _300  and  _301
REMARK  120  A    between atoms: _310  and  _312
REMARK  121  A    between atoms: _312  and  _313
REMARK  122  A    between atoms: _312  and  _315
REMARK  123  A    between atoms: _315  and  _316
REMARK  124  A    between atoms: _321  and  _323
REMARK  125  A    between atoms: _323  and  _324
REMARK  126  A    between atoms: _323  and  _326
REMARK  127  A    between atoms: _326  and  _327
REMARK  128  A    between atoms: _327  and  _328
REMARK  129  A    between atoms: _328  and  _329
REMARK  130  A    between atoms: _338  and  _340
REMARK  131  A    between atoms: _340  and  _341
REMARK  132  A    between atoms: _340  and  _343
REMARK  133  A    between atoms: _343  and  _344
REMARK  134  A    between atoms: _354  and  _356
REMARK  135  A    between atoms: _356  and  _357
REMARK  136  A    between atoms: _356  and  _359
REMARK  137  A    between atoms: _359  and  _360
REMARK  138  A    between atoms: _360  and  _361
REMARK  139  A    between atoms: _361  and  _362
REMARK  140  A    between atoms: _362  and  _363
REMARK  141  A    between atoms: _367  and  _369
REMARK  142  A    between atoms: _369  and  _370
REMARK  143  A    between atoms: _369  and  _372
REMARK  144  A    between atoms: _374  and  _376
REMARK  145  A    between atoms: _376  and  _377
REMARK  146  A    between atoms: _376  and  _379
REMARK  147  A    between atoms: _379  and  _380
REMARK  148  A    between atoms: _383  and  _385
REMARK  149  A    between atoms: _385  and  _386
REMARK  150  A    between atoms: _385  and  _388
REMARK  151  A    between atoms: _391  and  _393
REMARK  152  A    between atoms: _393  and  _394
REMARK  153  A    between atoms: _393  and  _396
REMARK  154  A    between atoms: _396  and  _397
REMARK  155  A    between atoms: _402  and  _404
REMARK  156  A    between atoms: _404  and  _405
REMARK  157  A    between atoms: _404  and  _407
REMARK  158  A    between atoms: _407  and  _408
REMARK  159  A    between atoms: _412  and  _413
REMARK  160  A    between atoms: _418  and  _420
REMARK  161  A    between atoms: _420  and  _421
REMARK  162  A    between atoms: _420  and  _423
REMARK  163  A    between atoms: _423  and  _424
REMARK  164  A    between atoms: _427  and  _429
REMARK  165  A    between atoms: _429  and  _430
REMARK  166  A    between atoms: _429  and  _432
REMARK  167  A    between atoms: _432  and  _433
REMARK  168  A    between atoms: _436  and  _438
REMARK  169  A    between atoms: _438  and  _439
REMARK  170  A    between atoms: _438  and  _441
REMARK  171  A    between atoms: _441  and  _442
REMARK  172  A    between atoms: _445  and  _447
REMARK  173  A    between atoms: _447  and  _448
REMARK  174  A    between atoms: _447  and  _450
REMARK  175  A    between atoms: _450  and  _451
REMARK  176  A    between atoms: _454  and  _456
REMARK  177  A    between atoms: _456  and  _457
REMARK  178  A    between atoms: _460  and  _462
REMARK  179  A    between atoms: _462  and  _463
REMARK  180  A    between atoms: _462  and  _465
REMARK  181  A    between atoms: _465  and  _466
REMARK  182  A    between atoms: _466  and  _467
REMARK  183  A    between atoms: _469  and  _471
REMARK  184  A    between atoms: _471  and  _472
REMARK  185  A    between atoms: _471  and  _474
REMARK  186  A    between atoms: _474  and  _475
REMARK  187  A    between atoms: _475  and  _476
REMARK  188  A    between atoms: _479  and  _481
REMARK  189  A    between atoms: _481  and  _482
REMARK  190  A    between atoms: _481  and  _484
REMARK  191  A    between atoms: _486  and  _488
REMARK  192  A    between atoms: _488  and  _489
REMARK  193  A    between atoms: _492  and  _494
REMARK  194  A    between atoms: _494  and  _495
REMARK  195  A    between atoms: _494  and  _497
REMARK  196  A    between atoms: _499  and  _501
REMARK  197  A    between atoms: _501  and  _502
REMARK  198  A    between atoms: _505  and  _507
REMARK  199  A    between atoms: _507  and  _508
REMARK  200  A    between atoms: _507  and  _510
REMARK  201  A    between atoms: _510  and  _511
REMARK  202  A    between atoms: _514  and  _516
REMARK  203  A    between atoms: _516  and  _517
REMARK  204  A    between atoms: _516  and  _519
REMARK  205  A    between atoms: _519  and  _520
REMARK  206  A    between atoms: _523  and  _525
REMARK  207  A    between atoms: _525  and  _526
REMARK  208  A    between atoms: _525  and  _528
REMARK  209  A    between atoms: _528  and  _529
REMARK  210  A    between atoms: _534  and  _535
REMARK  211  A    between atoms: _537  and  _539
REMARK  212  A    between atoms: _539  and  _540
REMARK  213  A    between atoms: _539  and  _542
REMARK  214  A    between atoms: _545  and  _547
REMARK  215  A    between atoms: _547  and  _548
REMARK  216  A    between atoms: _547  and  _550
REMARK  217  A    between atoms: _550  and  _551
REMARK  218  A    between atoms: _557  and  _559
REMARK  219  A    between atoms: _559  and  _560
REMARK  220  A    between atoms: _559  and  _562
REMARK  221  A    between atoms: _562  and  _563
REMARK  222  A    between atoms: _565  and  _567
REMARK  223  A    between atoms: _567  and  _568
REMARK  224  A    between atoms: _567  and  _570
REMARK  225  A    between atoms: _572  and  _574
REMARK  226  A    between atoms: _574  and  _575
REMARK  227  A    between atoms: _574  and  _577
REMARK  228  A    between atoms: _577  and  _578
REMARK  229  A    between atoms: _583  and  _584
REMARK                            x       y       z     vdW  Elec       q    Type
REMARK                         _______ _______ _______ _____ _____    ______ ____
ROOT
ATOM      1  O   HOH     1      24.950  51.829   7.419  0.00  0.00    +0.000 OA
ENDROOT
TORSDOF 0
REMARK  Name = ../refined-set-2016/2a14/2a14_pocket.pdb
REMARK  229 active torsions:
REMARK  status: ('A' for Active; 'I' for Inactive)
REMARK    1  A    between atoms: _1  and  _5
REMARK    2  A    between atoms: _5  and  _6
REMARK    3  A    between atoms: _5  and  _8
REMARK    4  A    between atoms: _8  and  _9
REMARK    5  A    between atoms: _15  and  _17
REMARK    6  A    between atoms: _17  and  _18
REMARK    7  A    between atoms: _17  and  _20
REMARK    8  A    between atoms: _20  and  _21
REMARK    9  A    between atoms: _24  and  _26
REMARK   10  A    between atoms: _26  and  _27
REMARK   11  A    between atoms: _29  and  _31
REMARK   12  A    between atoms: _31  and  _32
REMARK   13  A    between atoms: _34  and  _36
REMARK   14  A    between atoms: _36  and  _37
REMARK   15  A    between atoms: _36  and  _39
REMARK   16  A    between atoms: _39  and  _40
REMARK   17  A    between atoms: _45  and  _46
REMARK   18  A    between atoms: _48  and  _50
REMARK   19  A    between atoms: _50  and  _51
REMARK   20  A    between atoms: _50  and  _53
REMARK   21  A    between atoms: _53  and  _54
REMARK   22  A    between atoms: _54  and  _55
REMARK   23  A    between atoms: _60  and  _62
REMARK   24  A    between atoms: _62  and  _63
REMARK   25  A    between atoms: _62  and  _65
REMARK   26  A    between atoms: _65  and  _66
REMARK   27  A    between atoms: _73  and  _74
REMARK   28  A    between atoms: _79  and  _81
REMARK   29  A    between atoms: _81  and  _82
REMARK   30  A    between atoms: _81  and  _84
REMARK   31  A    between atoms: _84  and  _85
REMARK   32  A    between atoms: _90  and  _91
REMARK   33  A    between atoms: _93  and  _95
REMARK   34  A    between atoms: _95  and  _96
REMARK   35  A    between atoms: _95  and  _98
REMARK   36  A    between atoms: _98  and  _99
REMARK   37  A    between atoms: _102  and  _104
REMARK   38  A    between atoms: _104  and  _105
REMARK   39  A    between atoms: _104  and  _107
REMARK   40  A    between atoms: _107  and  _108
REMARK   41  A    between atoms: _113  and  _114
REMARK   42  A    between atoms: _116  and  _118
REMARK   43  A    between atoms: _118  and  _119
REMARK   44  A    between atoms: _118  and  _121
REMARK   45  A    between atoms: _121  and  _122
REMARK   46  A    between atoms: _127  and  _128
REMARK   47  A    between atoms: _130  and  _132
REMARK   48  A    between atoms: _132  and  _133
REMARK   49  A    between atoms: _132  and  _135
REMARK   50  A    between atoms: _135  and  _136
REMARK   51  A    between atoms: _139  and  _141
REMARK   52  A    between atoms: _141  and  _142
REMARK   53  A    between atoms: _141  and  _144
REMARK   54  A    between atoms: _144  and  _145
REMARK   55  A    between atoms: _150  and  _152
REMARK   56  A    between atoms: _152  and  _153
REMARK   57  A    between atoms: _152  and  _155
REMARK   58  A    between atoms: _155  and  _156
REMARK   59  A    between atoms: _159  and  _161
REMARK   60  A    between atoms: _161  and  _162
REMARK   61  A    between atoms: _161  and  _164
REMARK   62  A    between atoms: _164  and  _165
REMARK   63  A    between atoms: _168  and  _170
REMARK   64  A    between atoms: _170  and  _171
REMARK   65  A    between atoms: _170  and  _173
REMARK   66  A    between atoms: _173  and  _174
REMARK   67  A    between atoms: _177  and  _179
REMARK   68  A    between atoms: _179  and  _180
REMARK   69  A    between atoms: _182  and  _184
REMARK   70  A    between atoms: _184  and  _185
REMARK   71  A    between atoms: _184  and  _187
REMARK   72  A    between atoms: _187  and  _188
REMARK   73  A    between atoms: _190  and  _192
REMARK   74  A    between atoms: _192  and  _193
REMARK   75  A    between atoms: _196  and  _197
REMARK   76  A    between atoms: _202  and  _204
REMARK   77  A    between atoms: _204  and  _205
REMARK   78  A    between atoms: _204  and  _207
REMARK   79  A    between atoms: _207  and  _208
REMARK   80  A    between atoms: _211  and  _213
REMARK   81  A    between atoms: _213  and  _214
REMARK   82  A    between atoms: _213  and  _216
REMARK   83  A    between atoms: _216  and  _217
REMARK   84  A    between atoms: _220  and  _222
REMARK   85  A    between atoms: _222  and  _223
REMARK   86  A    between atoms: _222  and  _225
REMARK   87  A    between atoms: _225  and  _226
REMARK   88  A    between atoms: _231  and  _232
REMARK   89  A    between atoms: _234  and  _236
REMARK   90  A    between atoms: _236  and  _237
REMARK   91  A    between atoms: _236  and  _239
REMARK   92  A    between atoms: _239  and  _240
REMARK   93  A    between atoms: _240  and  _241
REMARK   94  A    between atoms: _246  and  _248
REMARK   95  A    between atoms: _248  and  _249
REMARK   96  A    between atoms: _248  and  _251
REMARK   97  A    between atoms: _251  and  _252
REMARK   98  A    between atoms: _254  and  _256
REMARK   99  A    between atoms: _256  and  _257
REMARK  100  A    between atoms: _256  and  _259
REMARK  101  A    between atoms: _259  and  _260
REMARK  102  A    between atoms: _263  and  _265
REMARK  103  A    between atoms: _265  and  _266
REMARK  104  A    between atoms: _265  and  _268
REMARK  105  A    between atoms: _268  and  _269
REMARK  106  A    between atoms: _275  and  _277
REMARK  107  A    between atoms: _277  and  _278
REMARK  108  A    between atoms: _277  and  _280
REMARK  109  A    between atoms: _280  and  _281
REMARK  110  A    between atoms: _284  and  _286
REMARK  111  A    between atoms: _286  and  _287
REMARK  112  A    between atoms: _286  and  _289
REMARK  113  A    between atoms: _289  and  _290
REMARK  114  A    between atoms: _293  and  _295
REMARK  115  A    between atoms: _295  and  _296
REMARK  116  A    between atoms: _295  and  _298
REMARK  117  A    between atoms: _298  and  _299
REMARK  118  A    between atoms: _299  and  _300
REMARK  119  A    between atoms: _300  and  _301
REMARK  120  A    between atoms: _310  and  _312
REMARK  121  A    between atoms: _312  and  _313
REMARK  122  A    between atoms: _312  and  _315
REMARK  123  A    between atoms: _315  and  _316
REMARK  124  A    between atoms: _321  and  _323
REMARK  125  A    between atoms: _323  and  _324
REMARK  126  A    between atoms: _323  and  _326
REMARK  127  A    between atoms: _326  and  _327
REMARK  128  A    between atoms: _327  and  _328
REMARK  129  A    between atoms: _328  and  _329
REMARK  130  A    between atoms: _338  and  _340
REMARK  131  A    between atoms: _340  and  _341
REMARK  132  A    between atoms: _340  and  _343
REMARK  133  A    between atoms: _343  and  _344
REMARK  134  A    between atoms: _354  and  _356
REMARK  135  A    between atoms: _356  and  _357
REMARK  136  A    between atoms: _356  and  _359
REMARK  137  A    between atoms: _359  and  _360
REMARK  138  A    between atoms: _360  and  _361
REMARK  139  A    between atoms: _361  and  _362
REMARK  140  A    between atoms: _362  and  _363
REMARK  141  A    between atoms: _367  and  _369
REMARK  142  A    between atoms: _369  and  _370
REMARK  143  A    between atoms: _369  and  _372
REMARK  144  A    between atoms: _374  and  _376
REMARK  145  A    between atoms: _376  and  _377
REMARK  146  A    between atoms: _376  and  _379
REMARK  147  A    between atoms: _379  and  _380
REMARK  148  A    between atoms: _383  and  _385
REMARK  149  A    between atoms: _385  and  _386
REMARK  150  A    between atoms: _385  and  _388
REMARK  151  A    between atoms: _391  and  _393
REMARK  152  A    between atoms: _393  and  _394
REMARK  153  A    between atoms: _393  and  _396
REMARK  154  A    between atoms: _396  and  _397
REMARK  155  A    between atoms: _402  and  _404
REMARK  156  A    between atoms: _404  and  _405
REMARK  157  A    between atoms: _404  and  _407
REMARK  158  A    between atoms: _407  and  _408
REMARK  159  A    between atoms: _412  and  _413
REMARK  160  A    between atoms: _418  and  _420
REMARK  161  A    between atoms: _420  and  _421
REMARK  162  A    between atoms: _420  and  _423
REMARK  163  A    between atoms: _423  and  _424
REMARK  164  A    between atoms: _427  and  _429
REMARK  165  A    between atoms: _429  and  _430
REMARK  166  A    between atoms: _429  and  _432
REMARK  167  A    between atoms: _432  and  _433
REMARK  168  A    between atoms: _436  and  _438
REMARK  169  A    between atoms: _438  and  _439
REMARK  170  A    between atoms: _438  and  _441
REMARK  171  A    between atoms: _441  and  _442
REMARK  172  A    between atoms: _445  and  _447
REMARK  173  A    between atoms: _447  and  _448
REMARK  174  A    between atoms: _447  and  _450
REMARK  175  A    between atoms: _450  and  _451
REMARK  176  A    between atoms: _454  and  _456
REMARK  177  A    between atoms: _456  and  _457
REMARK  178  A    between atoms: _460  and  _462
REMARK  179  A    between atoms: _462  and  _463
REMARK  180  A    between atoms: _462  and  _465
REMARK  181  A    between atoms: _465  and  _466
REMARK  182  A    between atoms: _466  and  _467
REMARK  183  A    between atoms: _469  and  _471
REMARK  184  A    between atoms: _471  and  _472
REMARK  185  A    between atoms: _471  and  _474
REMARK  186  A    between atoms: _474  and  _475
REMARK  187  A    between atoms: _475  and  _476
REMARK  188  A    between atoms: _479  and  _481
REMARK  189  A    between atoms: _481  and  _482
REMARK  190  A    between atoms: _481  and  _484
REMARK  191  A    between atoms: _486  and  _488
REMARK  192  A    between atoms: _488  and  _489
REMARK  193  A    between atoms: _492  and  _494
REMARK  194  A    between atoms: _494  and  _495
REMARK  195  A    between atoms: _494  and  _497
REMARK  196  A    between atoms: _499  and  _501
REMARK  197  A    between atoms: _501  and  _502
REMARK  198  A    between atoms: _505  and  _507
REMARK  199  A    between atoms: _507  and  _508
REMARK  200  A    between atoms: _507  and  _510
REMARK  201  A    between atoms: _510  and  _511
REMARK  202  A    between atoms: _514  and  _516
REMARK  203  A    between atoms: _516  and  _517
REMARK  204  A    between atoms: _516  and  _519
REMARK  205  A    between atoms: _519  and  _520
REMARK  206  A    between atoms: _523  and  _525
REMARK  207  A    between atoms: _525  and  _526
REMARK  208  A    between atoms: _525  and  _528
REMARK  209  A    between atoms: _528  and  _529
REMARK  210  A    between atoms: _534  and  _535
REMARK  211  A    between atoms: _537  and  _539
REMARK  212  A    between atoms: _539  and  _540
REMARK  213  A    between atoms: _539  and  _542
REMARK  214  A    between atoms: _545  and  _547
REMARK  215  A    between atoms: _547  and  _548
REMARK  216  A    between atoms: _547  and  _550
REMARK  217  A    between atoms: _550  and  _551
REMARK  218  A    between atoms: _557  and  _559
REMARK  219  A    between atoms: _559  and  _560
REMARK  220  A    between atoms: _559  and  _562
REMARK  221  A    between atoms: _562  and  _563
REMARK  222  A    between atoms: _565  and  _567
REMARK  223  A    between atoms: _567  and  _568
REMARK  224  A    between atoms: _567  and  _570
REMARK  225  A    between atoms: _572  and  _574
REMARK  226  A    between atoms: _574  and  _575
REMARK  227  A    between atoms: _574  and  _577
REMARK  228  A    between atoms: _577  and  _578
REMARK  229  A    between atoms: _583  and  _584
REMARK                            x       y       z     vdW  Elec       q    Type
REMARK                         _______ _______ _______ _____ _____    ______ ____
ROOT
ATOM      1  O   HOH     1      23.703  53.705   5.958  0.00  0.00    +0.000 OA
ENDROOT
TORSDOF 0
REMARK  Name = ../refined-set-2016/2a14/2a14_pocket.pdb
REMARK  229 active torsions:
REMARK  status: ('A' for Active; 'I' for Inactive)
REMARK    1  A    between atoms: _1  and  _5
REMARK    2  A    between atoms: _5  and  _6
REMARK    3  A    between atoms: _5  and  _8
REMARK    4  A    between atoms: _8  and  _9
REMARK    5  A    between atoms: _15  and  _17
REMARK    6  A    between atoms: _17  and  _18
REMARK    7  A    between atoms: _17  and  _20
REMARK    8  A    between atoms: _20  and  _21
REMARK    9  A    between atoms: _24  and  _26
REMARK   10  A    between atoms: _26  and  _27
REMARK   11  A    between atoms: _29  and  _31
REMARK   12  A    between atoms: _31  and  _32
REMARK   13  A    between atoms: _34  and  _36
REMARK   14  A    between atoms: _36  and  _37
REMARK   15  A    between atoms: _36  and  _39
REMARK   16  A    between atoms: _39  and  _40
REMARK   17  A    between atoms: _45  and  _46
REMARK   18  A    between atoms: _48  and  _50
REMARK   19  A    between atoms: _50  and  _51
REMARK   20  A    between atoms: _50  and  _53
REMARK   21  A    between atoms: _53  and  _54
REMARK   22  A    between atoms: _54  and  _55
REMARK   23  A    between atoms: _60  and  _62
REMARK   24  A    between atoms: _62  and  _63
REMARK   25  A    between atoms: _62  and  _65
REMARK   26  A    between atoms: _65  and  _66
REMARK   27  A    between atoms: _73  and  _74
REMARK   28  A    between atoms: _79  and  _81
REMARK   29  A    between atoms: _81  and  _82
REMARK   30  A    between atoms: _81  and  _84
REMARK   31  A    between atoms: _84  and  _85
REMARK   32  A    between atoms: _90  and  _91
REMARK   33  A    between atoms: _93  and  _95
REMARK   34  A    between atoms: _95  and  _96
REMARK   35  A    between atoms: _95  and  _98
REMARK   36  A    between atoms: _98  and  _99
REMARK   37  A    between atoms: _102  and  _104
REMARK   38  A    between atoms: _104  and  _105
REMARK   39  A    between atoms: _104  and  _107
REMARK   40  A    between atoms: _107  and  _108
REMARK   41  A    between atoms: _113  and  _114
REMARK   42  A    between atoms: _116  and  _118
REMARK   43  A    between atoms: _118  and  _119
REMARK   44  A    between atoms: _118  and  _121
REMARK   45  A    between atoms: _121  and  _122
REMARK   46  A    between atoms: _127  and  _128
REMARK   47  A    between atoms: _130  and  _132
REMARK   48  A    between atoms: _132  and  _133
REMARK   49  A    between atoms: _132  and  _135
REMARK   50  A    between atoms: _135  and  _136
REMARK   51  A    between atoms: _139  and  _141
REMARK   52  A    between atoms: _141  and  _142
REMARK   53  A    between atoms: _141  and  _144
REMARK   54  A    between atoms: _144  and  _145
REMARK   55  A    between atoms: _150  and  _152
REMARK   56  A    between atoms: _152  and  _153
REMARK   57  A    between atoms: _152  and  _155
REMARK   58  A    between atoms: _155  and  _156
REMARK   59  A    between atoms: _159  and  _161
REMARK   60  A    between atoms: _161  and  _162
REMARK   61  A    between atoms: _161  and  _164
REMARK   62  A    between atoms: _164  and  _165
REMARK   63  A    between atoms: _168  and  _170
REMARK   64  A    between atoms: _170  and  _171
REMARK   65  A    between atoms: _170  and  _173
REMARK   66  A    between atoms: _173  and  _174
REMARK   67  A    between atoms: _177  and  _179
REMARK   68  A    between atoms: _179  and  _180
REMARK   69  A    between atoms: _182  and  _184
REMARK   70  A    between atoms: _184  and  _185
REMARK   71  A    between atoms: _184  and  _187
REMARK   72  A    between atoms: _187  and  _188
REMARK   73  A    between atoms: _190  and  _192
REMARK   74  A    between atoms: _192  and  _193
REMARK   75  A    between atoms: _196  and  _197
REMARK   76  A    between atoms: _202  and  _204
REMARK   77  A    between atoms: _204  and  _205
REMARK   78  A    between atoms: _204  and  _207
REMARK   79  A    between atoms: _207  and  _208
REMARK   80  A    between atoms: _211  and  _213
REMARK   81  A    between atoms: _213  and  _214
REMARK   82  A    between atoms: _213  and  _216
REMARK   83  A    between atoms: _216  and  _217
REMARK   84  A    between atoms: _220  and  _222
REMARK   85  A    between atoms: _222  and  _223
REMARK   86  A    between atoms: _222  and  _225
REMARK   87  A    between atoms: _225  and  _226
REMARK   88  A    between atoms: _231  and  _232
REMARK   89  A    between atoms: _234  and  _236
REMARK   90  A    between atoms: _236  and  _237
REMARK   91  A    between atoms: _236  and  _239
REMARK   92  A    between atoms: _239  and  _240
REMARK   93  A    between atoms: _240  and  _241
REMARK   94  A    between atoms: _246  and  _248
REMARK   95  A    between atoms: _248  and  _249
REMARK   96  A    between atoms: _248  and  _251
REMARK   97  A    between atoms: _251  and  _252
REMARK   98  A    between atoms: _254  and  _256
REMARK   99  A    between atoms: _256  and  _257
REMARK  100  A    between atoms: _256  and  _259
REMARK  101  A    between atoms: _259  and  _260
REMARK  102  A    between atoms: _263  and  _265
REMARK  103  A    between atoms: _265  and  _266
REMARK  104  A    between atoms: _265  and  _268
REMARK  105  A    between atoms: _268  and  _269
REMARK  106  A    between atoms: _275  and  _277
REMARK  107  A    between atoms: _277  and  _278
REMARK  108  A    between atoms: _277  and  _280
REMARK  109  A    between atoms: _280  and  _281
REMARK  110  A    between atoms: _284  and  _286
REMARK  111  A    between atoms: _286  and  _287
REMARK  112  A    between atoms: _286  and  _289
REMARK  113  A    between atoms: _289  and  _290
REMARK  114  A    between atoms: _293  and  _295
REMARK  115  A    between atoms: _295  and  _296
REMARK  116  A    between atoms: _295  and  _298
REMARK  117  A    between atoms: _298  and  _299
REMARK  118  A    between atoms: _299  and  _300
REMARK  119  A    between atoms: _300  and  _301
REMARK  120  A    between atoms: _310  and  _312
REMARK  121  A    between atoms: _312  and  _313
REMARK  122  A    between atoms: _312  and  _315
REMARK  123  A    between atoms: _315  and  _316
REMARK  124  A    between atoms: _321  and  _323
REMARK  125  A    between atoms: _323  and  _324
REMARK  126  A    between atoms: _323  and  _326
REMARK  127  A    between atoms: _326  and  _327
REMARK  128  A    between atoms: _327  and  _328
REMARK  129  A    between atoms: _328  and  _329
REMARK  130  A    between atoms: _338  and  _340
REMARK  131  A    between atoms: _340  and  _341
REMARK  132  A    between atoms: _340  and  _343
REMARK  133  A    between atoms: _343  and  _344
REMARK  134  A    between atoms: _354  and  _356
REMARK  135  A    between atoms: _356  and  _357
REMARK  136  A    between atoms: _356  and  _359
REMARK  137  A    between atoms: _359  and  _360
REMARK  138  A    between atoms: _360  and  _361
REMARK  139  A    between atoms: _361  and  _362
REMARK  140  A    between atoms: _362  and  _363
REMARK  141  A    between atoms: _367  and  _369
REMARK  142  A    between atoms: _369  and  _370
REMARK  143  A    between atoms: _369  and  _372
REMARK  144  A    between atoms: _374  and  _376
REMARK  145  A    between atoms: _376  and  _377
REMARK  146  A    between atoms: _376  and  _379
REMARK  147  A    between atoms: _379  and  _380
REMARK  148  A    between atoms: _383  and  _385
REMARK  149  A    between atoms: _385  and  _386
REMARK  150  A    between atoms: _385  and  _388
REMARK  151  A    between atoms: _391  and  _393
REMARK  152  A    between atoms: _393  and  _394
REMARK  153  A    between atoms: _393  and  _396
REMARK  154  A    between atoms: _396  and  _397
REMARK  155  A    between atoms: _402  and  _404
REMARK  156  A    between atoms: _404  and  _405
REMARK  157  A    between atoms: _404  and  _407
REMARK  158  A    between atoms: _407  and  _408
REMARK  159  A    between atoms: _412  and  _413
REMARK  160  A    between atoms: _418  and  _420
REMARK  161  A    between atoms: _420  and  _421
REMARK  162  A    between atoms: _420  and  _423
REMARK  163  A    between atoms: _423  and  _424
REMARK  164  A    between atoms: _427  and  _429
REMARK  165  A    between atoms: _429  and  _430
REMARK  166  A    between atoms: _429  and  _432
REMARK  167  A    between atoms: _432  and  _433
REMARK  168  A    between atoms: _436  and  _438
REMARK  169  A    between atoms: _438  and  _439
REMARK  170  A    between atoms: _438  and  _441
REMARK  171  A    between atoms: _441  and  _442
REMARK  172  A    between atoms: _445  and  _447
REMARK  173  A    between atoms: _447  and  _448
REMARK  174  A    between atoms: _447  and  _450
REMARK  175  A    between atoms: _450  and  _451
REMARK  176  A    between atoms: _454  and  _456
REMARK  177  A    between atoms: _456  and  _457
REMARK  178  A    between atoms: _460  and  _462
REMARK  179  A    between atoms: _462  and  _463
REMARK  180  A    between atoms: _462  and  _465
REMARK  181  A    between atoms: _465  and  _466
REMARK  182  A    between atoms: _466  and  _467
REMARK  183  A    between atoms: _469  and  _471
REMARK  184  A    between atoms: _471  and  _472
REMARK  185  A    between atoms: _471  and  _474
REMARK  186  A    between atoms: _474  and  _475
REMARK  187  A    between atoms: _475  and  _476
REMARK  188  A    between atoms: _479  and  _481
REMARK  189  A    between atoms: _481  and  _482
REMARK  190  A    between atoms: _481  and  _484
REMARK  191  A    between atoms: _486  and  _488
REMARK  192  A    between atoms: _488  and  _489
REMARK  193  A    between atoms: _492  and  _494
REMARK  194  A    between atoms: _494  and  _495
REMARK  195  A    between atoms: _494  and  _497
REMARK  196  A    between atoms: _499  and  _501
REMARK  197  A    between atoms: _501  and  _502
REMARK  198  A    between atoms: _505  and  _507
REMARK  199  A    between atoms: _507  and  _508
REMARK  200  A    between atoms: _507  and  _510
REMARK  201  A    between atoms: _510  and  _511
REMARK  202  A    between atoms: _514  and  _516
REMARK  203  A    between atoms: _516  and  _517
REMARK  204  A    between atoms: _516  and  _519
REMARK  205  A    between atoms: _519  and  _520
REMARK  206  A    between atoms: _523  and  _525
REMARK  207  A    between atoms: _525  and  _526
REMARK  208  A    between atoms: _525  and  _528
REMARK  209  A    between atoms: _528  and  _529
REMARK  210  A    between atoms: _534  and  _535
REMARK  211  A    between atoms: _537  and  _539
REMARK  212  A    between atoms: _539  and  _540
REMARK  213  A    between atoms: _539  and  _542
REMARK  214  A    between atoms: _545  and  _547
REMARK  215  A    between atoms: _547  and  _548
REMARK  216  A    between atoms: _547  and  _550
REMARK  217  A    between atoms: _550  and  _551
REMARK  218  A    between atoms: _557  and  _559
REMARK  219  A    between atoms: _559  and  _560
REMARK  220  A    between atoms: _559  and  _562
REMARK  221  A    between atoms: _562  and  _563
REMARK  222  A    between atoms: _565  and  _567
REMARK  223  A    between atoms: _567  and  _568
REMARK  224  A    between atoms: _567  and  _570
REMARK  225  A    between atoms: _572  and  _574
REMARK  226  A    between atoms: _574  and  _575
REMARK  227  A    between atoms: _574  and  _577
REMARK  228  A    between atoms: _577  and  _578
REMARK  229  A    between atoms: _583  and  _584
REMARK                            x       y       z     vdW  Elec       q    Type
REMARK                         _______ _______ _______ _____ _____    ______ ____
ROOT
ATOM      1  O   HOH     1      18.875  43.708  15.467  0.00  0.00    +0.000 OA
ENDROOT
TORSDOF 0
REMARK  Name = ../refined-set-2016/2a14/2a14_pocket.pdb
REMARK  229 active torsions:
REMARK  status: ('A' for Active; 'I' for Inactive)
REMARK    1  A    between atoms: _1  and  _5
REMARK    2  A    between atoms: _5  and  _6
REMARK    3  A    between atoms: _5  and  _8
REMARK    4  A    between atoms: _8  and  _9
REMARK    5  A    between atoms: _15  and  _17
REMARK    6  A    between atoms: _17  and  _18
REMARK    7  A    between atoms: _17  and  _20
REMARK    8  A    between atoms: _20  and  _21
REMARK    9  A    between atoms: _24  and  _26
REMARK   10  A    between atoms: _26  and  _27
REMARK   11  A    between atoms: _29  and  _31
REMARK   12  A    between atoms: _31  and  _32
REMARK   13  A    between atoms: _34  and  _36
REMARK   14  A    between atoms: _36  and  _37
REMARK   15  A    between atoms: _36  and  _39
REMARK   16  A    between atoms: _39  and  _40
REMARK   17  A    between atoms: _45  and  _46
REMARK   18  A    between atoms: _48  and  _50
REMARK   19  A    between atoms: _50  and  _51
REMARK   20  A    between atoms: _50  and  _53
REMARK   21  A    between atoms: _53  and  _54
REMARK   22  A    between atoms: _54  and  _55
REMARK   23  A    between atoms: _60  and  _62
REMARK   24  A    between atoms: _62  and  _63
REMARK   25  A    between atoms: _62  and  _65
REMARK   26  A    between atoms: _65  and  _66
REMARK   27  A    between atoms: _73  and  _74
REMARK   28  A    between atoms: _79  and  _81
REMARK   29  A    between atoms: _81  and  _82
REMARK   30  A    between atoms: _81  and  _84
REMARK   31  A    between atoms: _84  and  _85
REMARK   32  A    between atoms: _90  and  _91
REMARK   33  A    between atoms: _93  and  _95
REMARK   34  A    between atoms: _95  and  _96
REMARK   35  A    between atoms: _95  and  _98
REMARK   36  A    between atoms: _98  and  _99
REMARK   37  A    between atoms: _102  and  _104
REMARK   38  A    between atoms: _104  and  _105
REMARK   39  A    between atoms: _104  and  _107
REMARK   40  A    between atoms: _107  and  _108
REMARK   41  A    between atoms: _113  and  _114
REMARK   42  A    between atoms: _116  and  _118
REMARK   43  A    between atoms: _118  and  _119
REMARK   44  A    between atoms: _118  and  _121
REMARK   45  A    between atoms: _121  and  _122
REMARK   46  A    between atoms: _127  and  _128
REMARK   47  A    between atoms: _130  and  _132
REMARK   48  A    between atoms: _132  and  _133
REMARK   49  A    between atoms: _132  and  _135
REMARK   50  A    between atoms: _135  and  _136
REMARK   51  A    between atoms: _139  and  _141
REMARK   52  A    between atoms: _141  and  _142
REMARK   53  A    between atoms: _141  and  _144
REMARK   54  A    between atoms: _144  and  _145
REMARK   55  A    between atoms: _150  and  _152
REMARK   56  A    between atoms: _152  and  _153
REMARK   57  A    between atoms: _152  and  _155
REMARK   58  A    between atoms: _155  and  _156
REMARK   59  A    between atoms: _159  and  _161
REMARK   60  A    between atoms: _161  and  _162
REMARK   61  A    between atoms: _161  and  _164
REMARK   62  A    between atoms: _164  and  _165
REMARK   63  A    between atoms: _168  and  _170
REMARK   64  A    between atoms: _170  and  _171
REMARK   65  A    between atoms: _170  and  _173
REMARK   66  A    between atoms: _173  and  _174
REMARK   67  A    between atoms: _177  and  _179
REMARK   68  A    between atoms: _179  and  _180
REMARK   69  A    between atoms: _182  and  _184
REMARK   70  A    between atoms: _184  and  _185
REMARK   71  A    between atoms: _184  and  _187
REMARK   72  A    between atoms: _187  and  _188
REMARK   73  A    between atoms: _190  and  _192
REMARK   74  A    between atoms: _192  and  _193
REMARK   75  A    between atoms: _196  and  _197
REMARK   76  A    between atoms: _202  and  _204
REMARK   77  A    between atoms: _204  and  _205
REMARK   78  A    between atoms: _204  and  _207
REMARK   79  A    between atoms: _207  and  _208
REMARK   80  A    between atoms: _211  and  _213
REMARK   81  A    between atoms: _213  and  _214
REMARK   82  A    between atoms: _213  and  _216
REMARK   83  A    between atoms: _216  and  _217
REMARK   84  A    between atoms: _220  and  _222
REMARK   85  A    between atoms: _222  and  _223
REMARK   86  A    between atoms: _222  and  _225
REMARK   87  A    between atoms: _225  and  _226
REMARK   88  A    between atoms: _231  and  _232
REMARK   89  A    between atoms: _234  and  _236
REMARK   90  A    between atoms: _236  and  _237
REMARK   91  A    between atoms: _236  and  _239
REMARK   92  A    between atoms: _239  and  _240
REMARK   93  A    between atoms: _240  and  _241
REMARK   94  A    between atoms: _246  and  _248
REMARK   95  A    between atoms: _248  and  _249
REMARK   96  A    between atoms: _248  and  _251
REMARK   97  A    between atoms: _251  and  _252
REMARK   98  A    between atoms: _254  and  _256
REMARK   99  A    between atoms: _256  and  _257
REMARK  100  A    between atoms: _256  and  _259
REMARK  101  A    between atoms: _259  and  _260
REMARK  102  A    between atoms: _263  and  _265
REMARK  103  A    between atoms: _265  and  _266
REMARK  104  A    between atoms: _265  and  _268
REMARK  105  A    between atoms: _268  and  _269
REMARK  106  A    between atoms: _275  and  _277
REMARK  107  A    between atoms: _277  and  _278
REMARK  108  A    between atoms: _277  and  _280
REMARK  109  A    between atoms: _280  and  _281
REMARK  110  A    between atoms: _284  and  _286
REMARK  111  A    between atoms: _286  and  _287
REMARK  112  A    between atoms: _286  and  _289
REMARK  113  A    between atoms: _289  and  _290
REMARK  114  A    between atoms: _293  and  _295
REMARK  115  A    between atoms: _295  and  _296
REMARK  116  A    between atoms: _295  and  _298
REMARK  117  A    between atoms: _298  and  _299
REMARK  118  A    between atoms: _299  and  _300
REMARK  119  A    between atoms: _300  and  _301
REMARK  120  A    between atoms: _310  and  _312
REMARK  121  A    between atoms: _312  and  _313
REMARK  122  A    between atoms: _312  and  _315
REMARK  123  A    between atoms: _315  and  _316
REMARK  124  A    between atoms: _321  and  _323
REMARK  125  A    between atoms: _323  and  _324
REMARK  126  A    between atoms: _323  and  _326
REMARK  127  A    between atoms: _326  and  _327
REMARK  128  A    between atoms: _327  and  _328
REMARK  129  A    between atoms: _328  and  _329
REMARK  130  A    between atoms: _338  and  _340
REMARK  131  A    between atoms: _340  and  _341
REMARK  132  A    between atoms: _340  and  _343
REMARK  133  A    between atoms: _343  and  _344
REMARK  134  A    between atoms: _354  and  _356
REMARK  135  A    between atoms: _356  and  _357
REMARK  136  A    between atoms: _356  and  _359
REMARK  137  A    between atoms: _359  and  _360
REMARK  138  A    between atoms: _360  and  _361
REMARK  139  A    between atoms: _361  and  _362
REMARK  140  A    between atoms: _362  and  _363
REMARK  141  A    between atoms: _367  and  _369
REMARK  142  A    between atoms: _369  and  _370
REMARK  143  A    between atoms: _369  and  _372
REMARK  144  A    between atoms: _374  and  _376
REMARK  145  A    between atoms: _376  and  _377
REMARK  146  A    between atoms: _376  and  _379
REMARK  147  A    between atoms: _379  and  _380
REMARK  148  A    between atoms: _383  and  _385
REMARK  149  A    between atoms: _385  and  _386
REMARK  150  A    between atoms: _385  and  _388
REMARK  151  A    between atoms: _391  and  _393
REMARK  152  A    between atoms: _393  and  _394
REMARK  153  A    between atoms: _393  and  _396
REMARK  154  A    between atoms: _396  and  _397
REMARK  155  A    between atoms: _402  and  _404
REMARK  156  A    between atoms: _404  and  _405
REMARK  157  A    between atoms: _404  and  _407
REMARK  158  A    between atoms: _407  and  _408
REMARK  159  A    between atoms: _412  and  _413
REMARK  160  A    between atoms: _418  and  _420
REMARK  161  A    between atoms: _420  and  _421
REMARK  162  A    between atoms: _420  and  _423
REMARK  163  A    between atoms: _423  and  _424
REMARK  164  A    between atoms: _427  and  _429
REMARK  165  A    between atoms: _429  and  _430
REMARK  166  A    between atoms: _429  and  _432
REMARK  167  A    between atoms: _432  and  _433
REMARK  168  A    between atoms: _436  and  _438
REMARK  169  A    between atoms: _438  and  _439
REMARK  170  A    between atoms: _438  and  _441
REMARK  171  A    between atoms: _441  and  _442
REMARK  172  A    between atoms: _445  and  _447
REMARK  173  A    between atoms: _447  and  _448
REMARK  174  A    between atoms: _447  and  _450
REMARK  175  A    between atoms: _450  and  _451
REMARK  176  A    between atoms: _454  and  _456
REMARK  177  A    between atoms: _456  and  _457
REMARK  178  A    between atoms: _460  and  _462
REMARK  179  A    between atoms: _462  and  _463
REMARK  180  A    between atoms: _462  and  _465
REMARK  181  A    between atoms: _465  and  _466
REMARK  182  A    between atoms: _466  and  _467
REMARK  183  A    between atoms: _469  and  _471
REMARK  184  A    between atoms: _471  and  _472
REMARK  185  A    between atoms: _471  and  _474
REMARK  186  A    between atoms: _474  and  _475
REMARK  187  A    between atoms: _475  and  _476
REMARK  188  A    between atoms: _479  and  _481
REMARK  189  A    between atoms: _481  and  _482
REMARK  190  A    between atoms: _481  and  _484
REMARK  191  A    between atoms: _486  and  _488
REMARK  192  A    between atoms: _488  and  _489
REMARK  193  A    between atoms: _492  and  _494
REMARK  194  A    between atoms: _494  and  _495
REMARK  195  A    between atoms: _494  and  _497
REMARK  196  A    between atoms: _499  and  _501
REMARK  197  A    between atoms: _501  and  _502
REMARK  198  A    between atoms: _505  and  _507
REMARK  199  A    between atoms: _507  and  _508
REMARK  200  A    between atoms: _507  and  _510
REMARK  201  A    between atoms: _510  and  _511
REMARK  202  A    between atoms: _514  and  _516
REMARK  203  A    between atoms: _516  and  _517
REMARK  204  A    between atoms: _516  and  _519
REMARK  205  A    between atoms: _519  and  _520
REMARK  206  A    between atoms: _523  and  _525
REMARK  207  A    between atoms: _525  and  _526
REMARK  208  A    between atoms: _525  and  _528
REMARK  209  A    between atoms: _528  and  _529
REMARK  210  A    between atoms: _534  and  _535
REMARK  211  A    between atoms: _537  and  _539
REMARK  212  A    between atoms: _539  and  _540
REMARK  213  A    between atoms: _539  and  _542
REMARK  214  A    between atoms: _545  and  _547
REMARK  215  A    between atoms: _547  and  _548
REMARK  216  A    between atoms: _547  and  _550
REMARK  217  A    between atoms: _550  and  _551
REMARK  218  A    between atoms: _557  and  _559
REMARK  219  A    between atoms: _559  and  _560
REMARK  220  A    between atoms: _559  and  _562
REMARK  221  A    between atoms: _562  and  _563
REMARK  222  A    between atoms: _565  and  _567
REMARK  223  A    between atoms: _567  and  _568
REMARK  224  A    between atoms: _567  and  _570
REMARK  225  A    between atoms: _572  and  _574
REMARK  226  A    between atoms: _574  and  _575
REMARK  227  A    between atoms: _574  and  _577
REMARK  228  A    between atoms: _577  and  _578
REMARK  229  A    between atoms: _583  and  _584
REMARK                            x       y       z     vdW  Elec       q    Type
REMARK                         _______ _______ _______ _____ _____    ______ ____
ROOT
ATOM      1  O   HOH     1      23.659  54.595  -1.024  0.00  0.00    +0.000 OA
ENDROOT
TORSDOF 0
REMARK  Name = ../refined-set-2016/2a14/2a14_pocket.pdb
REMARK  229 active torsions:
REMARK  status: ('A' for Active; 'I' for Inactive)
REMARK    1  A    between atoms: _1  and  _5
REMARK    2  A    between atoms: _5  and  _6
REMARK    3  A    between atoms: _5  and  _8
REMARK    4  A    between atoms: _8  and  _9
REMARK    5  A    between atoms: _15  and  _17
REMARK    6  A    between atoms: _17  and  _18
REMARK    7  A    between atoms: _17  and  _20
REMARK    8  A    between atoms: _20  and  _21
REMARK    9  A    between atoms: _24  and  _26
REMARK   10  A    between atoms: _26  and  _27
REMARK   11  A    between atoms: _29  and  _31
REMARK   12  A    between atoms: _31  and  _32
REMARK   13  A    between atoms: _34  and  _36
REMARK   14  A    between atoms: _36  and  _37
REMARK   15  A    between atoms: _36  and  _39
REMARK   16  A    between atoms: _39  and  _40
REMARK   17  A    between atoms: _45  and  _46
REMARK   18  A    between atoms: _48  and  _50
REMARK   19  A    between atoms: _50  and  _51
REMARK   20  A    between atoms: _50  and  _53
REMARK   21  A    between atoms: _53  and  _54
REMARK   22  A    between atoms: _54  and  _55
REMARK   23  A    between atoms: _60  and  _62
REMARK   24  A    between atoms: _62  and  _63
REMARK   25  A    between atoms: _62  and  _65
REMARK   26  A    between atoms: _65  and  _66
REMARK   27  A    between atoms: _73  and  _74
REMARK   28  A    between atoms: _79  and  _81
REMARK   29  A    between atoms: _81  and  _82
REMARK   30  A    between atoms: _81  and  _84
REMARK   31  A    between atoms: _84  and  _85
REMARK   32  A    between atoms: _90  and  _91
REMARK   33  A    between atoms: _93  and  _95
REMARK   34  A    between atoms: _95  and  _96
REMARK   35  A    between atoms: _95  and  _98
REMARK   36  A    between atoms: _98  and  _99
REMARK   37  A    between atoms: _102  and  _104
REMARK   38  A    between atoms: _104  and  _105
REMARK   39  A    between atoms: _104  and  _107
REMARK   40  A    between atoms: _107  and  _108
REMARK   41  A    between atoms: _113  and  _114
REMARK   42  A    between atoms: _116  and  _118
REMARK   43  A    between atoms: _118  and  _119
REMARK   44  A    between atoms: _118  and  _121
REMARK   45  A    between atoms: _121  and  _122
REMARK   46  A    between atoms: _127  and  _128
REMARK   47  A    between atoms: _130  and  _132
REMARK   48  A    between atoms: _132  and  _133
REMARK   49  A    between atoms: _132  and  _135
REMARK   50  A    between atoms: _135  and  _136
REMARK   51  A    between atoms: _139  and  _141
REMARK   52  A    between atoms: _141  and  _142
REMARK   53  A    between atoms: _141  and  _144
REMARK   54  A    between atoms: _144  and  _145
REMARK   55  A    between atoms: _150  and  _152
REMARK   56  A    between atoms: _152  and  _153
REMARK   57  A    between atoms: _152  and  _155
REMARK   58  A    between atoms: _155  and  _156
REMARK   59  A    between atoms: _159  and  _161
REMARK   60  A    between atoms: _161  and  _162
REMARK   61  A    between atoms: _161  and  _164
REMARK   62  A    between atoms: _164  and  _165
REMARK   63  A    between atoms: _168  and  _170
REMARK   64  A    between atoms: _170  and  _171
REMARK   65  A    between atoms: _170  and  _173
REMARK   66  A    between atoms: _173  and  _174
REMARK   67  A    between atoms: _177  and  _179
REMARK   68  A    between atoms: _179  and  _180
REMARK   69  A    between atoms: _182  and  _184
REMARK   70  A    between atoms: _184  and  _185
REMARK   71  A    between atoms: _184  and  _187
REMARK   72  A    between atoms: _187  and  _188
REMARK   73  A    between atoms: _190  and  _192
REMARK   74  A    between atoms: _192  and  _193
REMARK   75  A    between atoms: _196  and  _197
REMARK   76  A    between atoms: _202  and  _204
REMARK   77  A    between atoms: _204  and  _205
REMARK   78  A    between atoms: _204  and  _207
REMARK   79  A    between atoms: _207  and  _208
REMARK   80  A    between atoms: _211  and  _213
REMARK   81  A    between atoms: _213  and  _214
REMARK   82  A    between atoms: _213  and  _216
REMARK   83  A    between atoms: _216  and  _217
REMARK   84  A    between atoms: _220  and  _222
REMARK   85  A    between atoms: _222  and  _223
REMARK   86  A    between atoms: _222  and  _225
REMARK   87  A    between atoms: _225  and  _226
REMARK   88  A    between atoms: _231  and  _232
REMARK   89  A    between atoms: _234  and  _236
REMARK   90  A    between atoms: _236  and  _237
REMARK   91  A    between atoms: _236  and  _239
REMARK   92  A    between atoms: _239  and  _240
REMARK   93  A    between atoms: _240  and  _241
REMARK   94  A    between atoms: _246  and  _248
REMARK   95  A    between atoms: _248  and  _249
REMARK   96  A    between atoms: _248  and  _251
REMARK   97  A    between atoms: _251  and  _252
REMARK   98  A    between atoms: _254  and  _256
REMARK   99  A    between atoms: _256  and  _257
REMARK  100  A    between atoms: _256  and  _259
REMARK  101  A    between atoms: _259  and  _260
REMARK  102  A    between atoms: _263  and  _265
REMARK  103  A    between atoms: _265  and  _266
REMARK  104  A    between atoms: _265  and  _268
REMARK  105  A    between atoms: _268  and  _269
REMARK  106  A    between atoms: _275  and  _277
REMARK  107  A    between atoms: _277  and  _278
REMARK  108  A    between atoms: _277  and  _280
REMARK  109  A    between atoms: _280  and  _281
REMARK  110  A    between atoms: _284  and  _286
REMARK  111  A    between atoms: _286  and  _287
REMARK  112  A    between atoms: _286  and  _289
REMARK  113  A    between atoms: _289  and  _290
REMARK  114  A    between atoms: _293  and  _295
REMARK  115  A    between atoms: _295  and  _296
REMARK  116  A    between atoms: _295  and  _298
REMARK  117  A    between atoms: _298  and  _299
REMARK  118  A    between atoms: _299  and  _300
REMARK  119  A    between atoms: _300  and  _301
REMARK  120  A    between atoms: _310  and  _312
REMARK  121  A    between atoms: _312  and  _313
REMARK  122  A    between atoms: _312  and  _315
REMARK  123  A    between atoms: _315  and  _316
REMARK  124  A    between atoms: _321  and  _323
REMARK  125  A    between atoms: _323  and  _324
REMARK  126  A    between atoms: _323  and  _326
REMARK  127  A    between atoms: _326  and  _327
REMARK  128  A    between atoms: _327  and  _328
REMARK  129  A    between atoms: _328  and  _329
REMARK  130  A    between atoms: _338  and  _340
REMARK  131  A    between atoms: _340  and  _341
REMARK  132  A    between atoms: _340  and  _343
REMARK  133  A    between atoms: _343  and  _344
REMARK  134  A    between atoms: _354  and  _356
REMARK  135  A    between atoms: _356  and  _357
REMARK  136  A    between atoms: _356  and  _359
REMARK  137  A    between atoms: _359  and  _360
REMARK  138  A    between atoms: _360  and  _361
REMARK  139  A    between atoms: _361  and  _362
REMARK  140  A    between atoms: _362  and  _363
REMARK  141  A    between atoms: _367  and  _369
REMARK  142  A    between atoms: _369  and  _370
REMARK  143  A    between atoms: _369  and  _372
REMARK  144  A    between atoms: _374  and  _376
REMARK  145  A    between atoms: _376  and  _377
REMARK  146  A    between atoms: _376  and  _379
REMARK  147  A    between atoms: _379  and  _380
REMARK  148  A    between atoms: _383  and  _385
REMARK  149  A    between atoms: _385  and  _386
REMARK  150  A    between atoms: _385  and  _388
REMARK  151  A    between atoms: _391  and  _393
REMARK  152  A    between atoms: _393  and  _394
REMARK  153  A    between atoms: _393  and  _396
REMARK  154  A    between atoms: _396  and  _397
REMARK  155  A    between atoms: _402  and  _404
REMARK  156  A    between atoms: _404  and  _405
REMARK  157  A    between atoms: _404  and  _407
REMARK  158  A    between atoms: _407  and  _408
REMARK  159  A    between atoms: _412  and  _413
REMARK  160  A    between atoms: _418  and  _420
REMARK  161  A    between atoms: _420  and  _421
REMARK  162  A    between atoms: _420  and  _423
REMARK  163  A    between atoms: _423  and  _424
REMARK  164  A    between atoms: _427  and  _429
REMARK  165  A    between atoms: _429  and  _430
REMARK  166  A    between atoms: _429  and  _432
REMARK  167  A    between atoms: _432  and  _433
REMARK  168  A    between atoms: _436  and  _438
REMARK  169  A    between atoms: _438  and  _439
REMARK  170  A    between atoms: _438  and  _441
REMARK  171  A    between atoms: _441  and  _442
REMARK  172  A    between atoms: _445  and  _447
REMARK  173  A    between atoms: _447  and  _448
REMARK  174  A    between atoms: _447  and  _450
REMARK  175  A    between atoms: _450  and  _451
REMARK  176  A    between atoms: _454  and  _456
REMARK  177  A    between atoms: _456  and  _457
REMARK  178  A    between atoms: _460  and  _462
REMARK  179  A    between atoms: _462  and  _463
REMARK  180  A    between atoms: _462  and  _465
REMARK  181  A    between atoms: _465  and  _466
REMARK  182  A    between atoms: _466  and  _467
REMARK  183  A    between atoms: _469  and  _471
REMARK  184  A    between atoms: _471  and  _472
REMARK  185  A    between atoms: _471  and  _474
REMARK  186  A    between atoms: _474  and  _475
REMARK  187  A    between atoms: _475  and  _476
REMARK  188  A    between atoms: _479  and  _481
REMARK  189  A    between atoms: _481  and  _482
REMARK  190  A    between atoms: _481  and  _484
REMARK  191  A    between atoms: _486  and  _488
REMARK  192  A    between atoms: _488  and  _489
REMARK  193  A    between atoms: _492  and  _494
REMARK  194  A    between atoms: _494  and  _495
REMARK  195  A    between atoms: _494  and  _497
REMARK  196  A    between atoms: _499  and  _501
REMARK  197  A    between atoms: _501  and  _502
REMARK  198  A    between atoms: _505  and  _507
REMARK  199  A    between atoms: _507  and  _508
REMARK  200  A    between atoms: _507  and  _510
REMARK  201  A    between atoms: _510  and  _511
REMARK  202  A    between atoms: _514  and  _516
REMARK  203  A    between atoms: _516  and  _517
REMARK  204  A    between atoms: _516  and  _519
REMARK  205  A    between atoms: _519  and  _520
REMARK  206  A    between atoms: _523  and  _525
REMARK  207  A    between atoms: _525  and  _526
REMARK  208  A    between atoms: _525  and  _528
REMARK  209  A    between atoms: _528  and  _529
REMARK  210  A    between atoms: _534  and  _535
REMARK  211  A    between atoms: _537  and  _539
REMARK  212  A    between atoms: _539  and  _540
REMARK  213  A    between atoms: _539  and  _542
REMARK  214  A    between atoms: _545  and  _547
REMARK  215  A    between atoms: _547  and  _548
REMARK  216  A    between atoms: _547  and  _550
REMARK  217  A    between atoms: _550  and  _551
REMARK  218  A    between atoms: _557  and  _559
REMARK  219  A    between atoms: _559  and  _560
REMARK  220  A    between atoms: _559  and  _562
REMARK  221  A    between atoms: _562  and  _563
REMARK  222  A    between atoms: _565  and  _567
REMARK  223  A    between atoms: _567  and  _568
REMARK  224  A    between atoms: _567  and  _570
REMARK  225  A    between atoms: _572  and  _574
REMARK  226  A    between atoms: _574  and  _575
REMARK  227  A    between atoms: _574  and  _577
REMARK  228  A    between atoms: _577  and  _578
REMARK  229  A    between atoms: _583  and  _584
REMARK                            x       y       z     vdW  Elec       q    Type
REMARK                         _______ _______ _______ _____ _____    ______ ____
ROOT
ATOM      1  O   HOH     1      23.049  52.435  -2.789  0.00  0.00    +0.000 OA
ENDROOT
TORSDOF 0
REMARK  Name = ../refined-set-2016/2a14/2a14_pocket.pdb
REMARK  229 active torsions:
REMARK  status: ('A' for Active; 'I' for Inactive)
REMARK    1  A    between atoms: _1  and  _5
REMARK    2  A    between atoms: _5  and  _6
REMARK    3  A    between atoms: _5  and  _8
REMARK    4  A    between atoms: _8  and  _9
REMARK    5  A    between atoms: _15  and  _17
REMARK    6  A    between atoms: _17  and  _18
REMARK    7  A    between atoms: _17  and  _20
REMARK    8  A    between atoms: _20  and  _21
REMARK    9  A    between atoms: _24  and  _26
REMARK   10  A    between atoms: _26  and  _27
REMARK   11  A    between atoms: _29  and  _31
REMARK   12  A    between atoms: _31  and  _32
REMARK   13  A    between atoms: _34  and  _36
REMARK   14  A    between atoms: _36  and  _37
REMARK   15  A    between atoms: _36  and  _39
REMARK   16  A    between atoms: _39  and  _40
REMARK   17  A    between atoms: _45  and  _46
REMARK   18  A    between atoms: _48  and  _50
REMARK   19  A    between atoms: _50  and  _51
REMARK   20  A    between atoms: _50  and  _53
REMARK   21  A    between atoms: _53  and  _54
REMARK   22  A    between atoms: _54  and  _55
REMARK   23  A    between atoms: _60  and  _62
REMARK   24  A    between atoms: _62  and  _63
REMARK   25  A    between atoms: _62  and  _65
REMARK   26  A    between atoms: _65  and  _66
REMARK   27  A    between atoms: _73  and  _74
REMARK   28  A    between atoms: _79  and  _81
REMARK   29  A    between atoms: _81  and  _82
REMARK   30  A    between atoms: _81  and  _84
REMARK   31  A    between atoms: _84  and  _85
REMARK   32  A    between atoms: _90  and  _91
REMARK   33  A    between atoms: _93  and  _95
REMARK   34  A    between atoms: _95  and  _96
REMARK   35  A    between atoms: _95  and  _98
REMARK   36  A    between atoms: _98  and  _99
REMARK   37  A    between atoms: _102  and  _104
REMARK   38  A    between atoms: _104  and  _105
REMARK   39  A    between atoms: _104  and  _107
REMARK   40  A    between atoms: _107  and  _108
REMARK   41  A    between atoms: _113  and  _114
REMARK   42  A    between atoms: _116  and  _118
REMARK   43  A    between atoms: _118  and  _119
REMARK   44  A    between atoms: _118  and  _121
REMARK   45  A    between atoms: _121  and  _122
REMARK   46  A    between atoms: _127  and  _128
REMARK   47  A    between atoms: _130  and  _132
REMARK   48  A    between atoms: _132  and  _133
REMARK   49  A    between atoms: _132  and  _135
REMARK   50  A    between atoms: _135  and  _136
REMARK   51  A    between atoms: _139  and  _141
REMARK   52  A    between atoms: _141  and  _142
REMARK   53  A    between atoms: _141  and  _144
REMARK   54  A    between atoms: _144  and  _145
REMARK   55  A    between atoms: _150  and  _152
REMARK   56  A    between atoms: _152  and  _153
REMARK   57  A    between atoms: _152  and  _155
REMARK   58  A    between atoms: _155  and  _156
REMARK   59  A    between atoms: _159  and  _161
REMARK   60  A    between atoms: _161  and  _162
REMARK   61  A    between atoms: _161  and  _164
REMARK   62  A    between atoms: _164  and  _165
REMARK   63  A    between atoms: _168  and  _170
REMARK   64  A    between atoms: _170  and  _171
REMARK   65  A    between atoms: _170  and  _173
REMARK   66  A    between atoms: _173  and  _174
REMARK   67  A    between atoms: _177  and  _179
REMARK   68  A    between atoms: _179  and  _180
REMARK   69  A    between atoms: _182  and  _184
REMARK   70  A    between atoms: _184  and  _185
REMARK   71  A    between atoms: _184  and  _187
REMARK   72  A    between atoms: _187  and  _188
REMARK   73  A    between atoms: _190  and  _192
REMARK   74  A    between atoms: _192  and  _193
REMARK   75  A    between atoms: _196  and  _197
REMARK   76  A    between atoms: _202  and  _204
REMARK   77  A    between atoms: _204  and  _205
REMARK   78  A    between atoms: _204  and  _207
REMARK   79  A    between atoms: _207  and  _208
REMARK   80  A    between atoms: _211  and  _213
REMARK   81  A    between atoms: _213  and  _214
REMARK   82  A    between atoms: _213  and  _216
REMARK   83  A    between atoms: _216  and  _217
REMARK   84  A    between atoms: _220  and  _222
REMARK   85  A    between atoms: _222  and  _223
REMARK   86  A    between atoms: _222  and  _225
REMARK   87  A    between atoms: _225  and  _226
REMARK   88  A    between atoms: _231  and  _232
REMARK   89  A    between atoms: _234  and  _236
REMARK   90  A    between atoms: _236  and  _237
REMARK   91  A    between atoms: _236  and  _239
REMARK   92  A    between atoms: _239  and  _240
REMARK   93  A    between atoms: _240  and  _241
REMARK   94  A    between atoms: _246  and  _248
REMARK   95  A    between atoms: _248  and  _249
REMARK   96  A    between atoms: _248  and  _251
REMARK   97  A    between atoms: _251  and  _252
REMARK   98  A    between atoms: _254  and  _256
REMARK   99  A    between atoms: _256  and  _257
REMARK  100  A    between atoms: _256  and  _259
REMARK  101  A    between atoms: _259  and  _260
REMARK  102  A    between atoms: _263  and  _265
REMARK  103  A    between atoms: _265  and  _266
REMARK  104  A    between atoms: _265  and  _268
REMARK  105  A    between atoms: _268  and  _269
REMARK  106  A    between atoms: _275  and  _277
REMARK  107  A    between atoms: _277  and  _278
REMARK  108  A    between atoms: _277  and  _280
REMARK  109  A    between atoms: _280  and  _281
REMARK  110  A    between atoms: _284  and  _286
REMARK  111  A    between atoms: _286  and  _287
REMARK  112  A    between atoms: _286  and  _289
REMARK  113  A    between atoms: _289  and  _290
REMARK  114  A    between atoms: _293  and  _295
REMARK  115  A    between atoms: _295  and  _296
REMARK  116  A    between atoms: _295  and  _298
REMARK  117  A    between atoms: _298  and  _299
REMARK  118  A    between atoms: _299  and  _300
REMARK  119  A    between atoms: _300  and  _301
REMARK  120  A    between atoms: _310  and  _312
REMARK  121  A    between atoms: _312  and  _313
REMARK  122  A    between atoms: _312  and  _315
REMARK  123  A    between atoms: _315  and  _316
REMARK  124  A    between atoms: _321  and  _323
REMARK  125  A    between atoms: _323  and  _324
REMARK  126  A    between atoms: _323  and  _326
REMARK  127  A    between atoms: _326  and  _327
REMARK  128  A    between atoms: _327  and  _328
REMARK  129  A    between atoms: _328  and  _329
REMARK  130  A    between atoms: _338  and  _340
REMARK  131  A    between atoms: _340  and  _341
REMARK  132  A    between atoms: _340  and  _343
REMARK  133  A    between atoms: _343  and  _344
REMARK  134  A    between atoms: _354  and  _356
REMARK  135  A    between atoms: _356  and  _357
REMARK  136  A    between atoms: _356  and  _359
REMARK  137  A    between atoms: _359  and  _360
REMARK  138  A    between atoms: _360  and  _361
REMARK  139  A    between atoms: _361  and  _362
REMARK  140  A    between atoms: _362  and  _363
REMARK  141  A    between atoms: _367  and  _369
REMARK  142  A    between atoms: _369  and  _370
REMARK  143  A    between atoms: _369  and  _372
REMARK  144  A    between atoms: _374  and  _376
REMARK  145  A    between atoms: _376  and  _377
REMARK  146  A    between atoms: _376  and  _379
REMARK  147  A    between atoms: _379  and  _380
REMARK  148  A    between atoms: _383  and  _385
REMARK  149  A    between atoms: _385  and  _386
REMARK  150  A    between atoms: _385  and  _388
REMARK  151  A    between atoms: _391  and  _393
REMARK  152  A    between atoms: _393  and  _394
REMARK  153  A    between atoms: _393  and  _396
REMARK  154  A    between atoms: _396  and  _397
REMARK  155  A    between atoms: _402  and  _404
REMARK  156  A    between atoms: _404  and  _405
REMARK  157  A    between atoms: _404  and  _407
REMARK  158  A    between atoms: _407  and  _408
REMARK  159  A    between atoms: _412  and  _413
REMARK  160  A    between atoms: _418  and  _420
REMARK  161  A    between atoms: _420  and  _421
REMARK  162  A    between atoms: _420  and  _423
REMARK  163  A    between atoms: _423  and  _424
REMARK  164  A    between atoms: _427  and  _429
REMARK  165  A    between atoms: _429  and  _430
REMARK  166  A    between atoms: _429  and  _432
REMARK  167  A    between atoms: _432  and  _433
REMARK  168  A    between atoms: _436  and  _438
REMARK  169  A    between atoms: _438  and  _439
REMARK  170  A    between atoms: _438  and  _441
REMARK  171  A    between atoms: _441  and  _442
REMARK  172  A    between atoms: _445  and  _447
REMARK  173  A    between atoms: _447  and  _448
REMARK  174  A    between atoms: _447  and  _450
REMARK  175  A    between atoms: _450  and  _451
REMARK  176  A    between atoms: _454  and  _456
REMARK  177  A    between atoms: _456  and  _457
REMARK  178  A    between atoms: _460  and  _462
REMARK  179  A    between atoms: _462  and  _463
REMARK  180  A    between atoms: _462  and  _465
REMARK  181  A    between atoms: _465  and  _466
REMARK  182  A    between atoms: _466  and  _467
REMARK  183  A    between atoms: _469  and  _471
REMARK  184  A    between atoms: _471  and  _472
REMARK  185  A    between atoms: _471  and  _474
REMARK  186  A    between atoms: _474  and  _475
REMARK  187  A    between atoms: _475  and  _476
REMARK  188  A    between atoms: _479  and  _481
REMARK  189  A    between atoms: _481  and  _482
REMARK  190  A    between atoms: _481  and  _484
REMARK  191  A    between atoms: _486  and  _488
REMARK  192  A    between atoms: _488  and  _489
REMARK  193  A    between atoms: _492  and  _494
REMARK  194  A    between atoms: _494  and  _495
REMARK  195  A    between atoms: _494  and  _497
REMARK  196  A    between atoms: _499  and  _501
REMARK  197  A    between atoms: _501  and  _502
REMARK  198  A    between atoms: _505  and  _507
REMARK  199  A    between atoms: _507  and  _508
REMARK  200  A    between atoms: _507  and  _510
REMARK  201  A    between atoms: _510  and  _511
REMARK  202  A    between atoms: _514  and  _516
REMARK  203  A    between atoms: _516  and  _517
REMARK  204  A    between atoms: _516  and  _519
REMARK  205  A    between atoms: _519  and  _520
REMARK  206  A    between atoms: _523  and  _525
REMARK  207  A    between atoms: _525  and  _526
REMARK  208  A    between atoms: _525  and  _528
REMARK  209  A    between atoms: _528  and  _529
REMARK  210  A    between atoms: _534  and  _535
REMARK  211  A    between atoms: _537  and  _539
REMARK  212  A    between atoms: _539  and  _540
REMARK  213  A    between atoms: _539  and  _542
REMARK  214  A    between atoms: _545  and  _547
REMARK  215  A    between atoms: _547  and  _548
REMARK  216  A    between atoms: _547  and  _550
REMARK  217  A    between atoms: _550  and  _551
REMARK  218  A    between atoms: _557  and  _559
REMARK  219  A    between atoms: _559  and  _560
REMARK  220  A    between atoms: _559  and  _562
REMARK  221  A    between atoms: _562  and  _563
REMARK  222  A    between atoms: _565  and  _567
REMARK  223  A    between atoms: _567  and  _568
REMARK  224  A    between atoms: _567  and  _570
REMARK  225  A    between atoms: _572  and  _574
REMARK  226  A    between atoms: _574  and  _575
REMARK  227  A    between atoms: _574  and  _577
REMARK  228  A    between atoms: _577  and  _578
REMARK  229  A    between atoms: _583  and  _584
REMARK                            x       y       z     vdW  Elec       q    Type
REMARK                         _______ _______ _______ _____ _____    ______ ____
ROOT
ATOM      1  O   HOH     1      23.721  55.408   9.794  0.00  0.00    +0.000 OA
ENDROOT
TORSDOF 0
REMARK  Name = ../refined-set-2016/2a14/2a14_pocket.pdb
REMARK  229 active torsions:
REMARK  status: ('A' for Active; 'I' for Inactive)
REMARK    1  A    between atoms: _1  and  _5
REMARK    2  A    between atoms: _5  and  _6
REMARK    3  A    between atoms: _5  and  _8
REMARK    4  A    between atoms: _8  and  _9
REMARK    5  A    between atoms: _15  and  _17
REMARK    6  A    between atoms: _17  and  _18
REMARK    7  A    between atoms: _17  and  _20
REMARK    8  A    between atoms: _20  and  _21
REMARK    9  A    between atoms: _24  and  _26
REMARK   10  A    between atoms: _26  and  _27
REMARK   11  A    between atoms: _29  and  _31
REMARK   12  A    between atoms: _31  and  _32
REMARK   13  A    between atoms: _34  and  _36
REMARK   14  A    between atoms: _36  and  _37
REMARK   15  A    between atoms: _36  and  _39
REMARK   16  A    between atoms: _39  and  _40
REMARK   17  A    between atoms: _45  and  _46
REMARK   18  A    between atoms: _48  and  _50
REMARK   19  A    between atoms: _50  and  _51
REMARK   20  A    between atoms: _50  and  _53
REMARK   21  A    between atoms: _53  and  _54
REMARK   22  A    between atoms: _54  and  _55
REMARK   23  A    between atoms: _60  and  _62
REMARK   24  A    between atoms: _62  and  _63
REMARK   25  A    between atoms: _62  and  _65
REMARK   26  A    between atoms: _65  and  _66
REMARK   27  A    between atoms: _73  and  _74
REMARK   28  A    between atoms: _79  and  _81
REMARK   29  A    between atoms: _81  and  _82
REMARK   30  A    between atoms: _81  and  _84
REMARK   31  A    between atoms: _84  and  _85
REMARK   32  A    between atoms: _90  and  _91
REMARK   33  A    between atoms: _93  and  _95
REMARK   34  A    between atoms: _95  and  _96
REMARK   35  A    between atoms: _95  and  _98
REMARK   36  A    between atoms: _98  and  _99
REMARK   37  A    between atoms: _102  and  _104
REMARK   38  A    between atoms: _104  and  _105
REMARK   39  A    between atoms: _104  and  _107
REMARK   40  A    between atoms: _107  and  _108
REMARK   41  A    between atoms: _113  and  _114
REMARK   42  A    between atoms: _116  and  _118
REMARK   43  A    between atoms: _118  and  _119
REMARK   44  A    between atoms: _118  and  _121
REMARK   45  A    between atoms: _121  and  _122
REMARK   46  A    between atoms: _127  and  _128
REMARK   47  A    between atoms: _130  and  _132
REMARK   48  A    between atoms: _132  and  _133
REMARK   49  A    between atoms: _132  and  _135
REMARK   50  A    between atoms: _135  and  _136
REMARK   51  A    between atoms: _139  and  _141
REMARK   52  A    between atoms: _141  and  _142
REMARK   53  A    between atoms: _141  and  _144
REMARK   54  A    between atoms: _144  and  _145
REMARK   55  A    between atoms: _150  and  _152
REMARK   56  A    between atoms: _152  and  _153
REMARK   57  A    between atoms: _152  and  _155
REMARK   58  A    between atoms: _155  and  _156
REMARK   59  A    between atoms: _159  and  _161
REMARK   60  A    between atoms: _161  and  _162
REMARK   61  A    between atoms: _161  and  _164
REMARK   62  A    between atoms: _164  and  _165
REMARK   63  A    between atoms: _168  and  _170
REMARK   64  A    between atoms: _170  and  _171
REMARK   65  A    between atoms: _170  and  _173
REMARK   66  A    between atoms: _173  and  _174
REMARK   67  A    between atoms: _177  and  _179
REMARK   68  A    between atoms: _179  and  _180
REMARK   69  A    between atoms: _182  and  _184
REMARK   70  A    between atoms: _184  and  _185
REMARK   71  A    between atoms: _184  and  _187
REMARK   72  A    between atoms: _187  and  _188
REMARK   73  A    between atoms: _190  and  _192
REMARK   74  A    between atoms: _192  and  _193
REMARK   75  A    between atoms: _196  and  _197
REMARK   76  A    between atoms: _202  and  _204
REMARK   77  A    between atoms: _204  and  _205
REMARK   78  A    between atoms: _204  and  _207
REMARK   79  A    between atoms: _207  and  _208
REMARK   80  A    between atoms: _211  and  _213
REMARK   81  A    between atoms: _213  and  _214
REMARK   82  A    between atoms: _213  and  _216
REMARK   83  A    between atoms: _216  and  _217
REMARK   84  A    between atoms: _220  and  _222
REMARK   85  A    between atoms: _222  and  _223
REMARK   86  A    between atoms: _222  and  _225
REMARK   87  A    between atoms: _225  and  _226
REMARK   88  A    between atoms: _231  and  _232
REMARK   89  A    between atoms: _234  and  _236
REMARK   90  A    between atoms: _236  and  _237
REMARK   91  A    between atoms: _236  and  _239
REMARK   92  A    between atoms: _239  and  _240
REMARK   93  A    between atoms: _240  and  _241
REMARK   94  A    between atoms: _246  and  _248
REMARK   95  A    between atoms: _248  and  _249
REMARK   96  A    between atoms: _248  and  _251
REMARK   97  A    between atoms: _251  and  _252
REMARK   98  A    between atoms: _254  and  _256
REMARK   99  A    between atoms: _256  and  _257
REMARK  100  A    between atoms: _256  and  _259
REMARK  101  A    between atoms: _259  and  _260
REMARK  102  A    between atoms: _263  and  _265
REMARK  103  A    between atoms: _265  and  _266
REMARK  104  A    between atoms: _265  and  _268
REMARK  105  A    between atoms: _268  and  _269
REMARK  106  A    between atoms: _275  and  _277
REMARK  107  A    between atoms: _277  and  _278
REMARK  108  A    between atoms: _277  and  _280
REMARK  109  A    between atoms: _280  and  _281
REMARK  110  A    between atoms: _284  and  _286
REMARK  111  A    between atoms: _286  and  _287
REMARK  112  A    between atoms: _286  and  _289
REMARK  113  A    between atoms: _289  and  _290
REMARK  114  A    between atoms: _293  and  _295
REMARK  115  A    between atoms: _295  and  _296
REMARK  116  A    between atoms: _295  and  _298
REMARK  117  A    between atoms: _298  and  _299
REMARK  118  A    between atoms: _299  and  _300
REMARK  119  A    between atoms: _300  and  _301
REMARK  120  A    between atoms: _310  and  _312
REMARK  121  A    between atoms: _312  and  _313
REMARK  122  A    between atoms: _312  and  _315
REMARK  123  A    between atoms: _315  and  _316
REMARK  124  A    between atoms: _321  and  _323
REMARK  125  A    between atoms: _323  and  _324
REMARK  126  A    between atoms: _323  and  _326
REMARK  127  A    between atoms: _326  and  _327
REMARK  128  A    between atoms: _327  and  _328
REMARK  129  A    between atoms: _328  and  _329
REMARK  130  A    between atoms: _338  and  _340
REMARK  131  A    between atoms: _340  and  _341
REMARK  132  A    between atoms: _340  and  _343
REMARK  133  A    between atoms: _343  and  _344
REMARK  134  A    between atoms: _354  and  _356
REMARK  135  A    between atoms: _356  and  _357
REMARK  136  A    between atoms: _356  and  _359
REMARK  137  A    between atoms: _359  and  _360
REMARK  138  A    between atoms: _360  and  _361
REMARK  139  A    between atoms: _361  and  _362
REMARK  140  A    between atoms: _362  and  _363
REMARK  141  A    between atoms: _367  and  _369
REMARK  142  A    between atoms: _369  and  _370
REMARK  143  A    between atoms: _369  and  _372
REMARK  144  A    between atoms: _374  and  _376
REMARK  145  A    between atoms: _376  and  _377
REMARK  146  A    between atoms: _376  and  _379
REMARK  147  A    between atoms: _379  and  _380
REMARK  148  A    between atoms: _383  and  _385
REMARK  149  A    between atoms: _385  and  _386
REMARK  150  A    between atoms: _385  and  _388
REMARK  151  A    between atoms: _391  and  _393
REMARK  152  A    between atoms: _393  and  _394
REMARK  153  A    between atoms: _393  and  _396
REMARK  154  A    between atoms: _396  and  _397
REMARK  155  A    between atoms: _402  and  _404
REMARK  156  A    between atoms: _404  and  _405
REMARK  157  A    between atoms: _404  and  _407
REMARK  158  A    between atoms: _407  and  _408
REMARK  159  A    between atoms: _412  and  _413
REMARK  160  A    between atoms: _418  and  _420
REMARK  161  A    between atoms: _420  and  _421
REMARK  162  A    between atoms: _420  and  _423
REMARK  163  A    between atoms: _423  and  _424
REMARK  164  A    between atoms: _427  and  _429
REMARK  165  A    between atoms: _429  and  _430
REMARK  166  A    between atoms: _429  and  _432
REMARK  167  A    between atoms: _432  and  _433
REMARK  168  A    between atoms: _436  and  _438
REMARK  169  A    between atoms: _438  and  _439
REMARK  170  A    between atoms: _438  and  _441
REMARK  171  A    between atoms: _441  and  _442
REMARK  172  A    between atoms: _445  and  _447
REMARK  173  A    between atoms: _447  and  _448
REMARK  174  A    between atoms: _447  and  _450
REMARK  175  A    between atoms: _450  and  _451
REMARK  176  A    between atoms: _454  and  _456
REMARK  177  A    between atoms: _456  and  _457
REMARK  178  A    between atoms: _460  and  _462
REMARK  179  A    between atoms: _462  and  _463
REMARK  180  A    between atoms: _462  and  _465
REMARK  181  A    between atoms: _465  and  _466
REMARK  182  A    between atoms: _466  and  _467
REMARK  183  A    between atoms: _469  and  _471
REMARK  184  A    between atoms: _471  and  _472
REMARK  185  A    between atoms: _471  and  _474
REMARK  186  A    between atoms: _474  and  _475
REMARK  187  A    between atoms: _475  and  _476
REMARK  188  A    between atoms: _479  and  _481
REMARK  189  A    between atoms: _481  and  _482
REMARK  190  A    between atoms: _481  and  _484
REMARK  191  A    between atoms: _486  and  _488
REMARK  192  A    between atoms: _488  and  _489
REMARK  193  A    between atoms: _492  and  _494
REMARK  194  A    between atoms: _494  and  _495
REMARK  195  A    between atoms: _494  and  _497
REMARK  196  A    between atoms: _499  and  _501
REMARK  197  A    between atoms: _501  and  _502
REMARK  198  A    between atoms: _505  and  _507
REMARK  199  A    between atoms: _507  and  _508
REMARK  200  A    between atoms: _507  and  _510
REMARK  201  A    between atoms: _510  and  _511
REMARK  202  A    between atoms: _514  and  _516
REMARK  203  A    between atoms: _516  and  _517
REMARK  204  A    between atoms: _516  and  _519
REMARK  205  A    between atoms: _519  and  _520
REMARK  206  A    between atoms: _523  and  _525
REMARK  207  A    between atoms: _525  and  _526
REMARK  208  A    between atoms: _525  and  _528
REMARK  209  A    between atoms: _528  and  _529
REMARK  210  A    between atoms: _534  and  _535
REMARK  211  A    between atoms: _537  and  _539
REMARK  212  A    between atoms: _539  and  _540
REMARK  213  A    between atoms: _539  and  _542
REMARK  214  A    between atoms: _545  and  _547
REMARK  215  A    between atoms: _547  and  _548
REMARK  216  A    between atoms: _547  and  _550
REMARK  217  A    between atoms: _550  and  _551
REMARK  218  A    between atoms: _557  and  _559
REMARK  219  A    between atoms: _559  and  _560
REMARK  220  A    between atoms: _559  and  _562
REMARK  221  A    between atoms: _562  and  _563
REMARK  222  A    between atoms: _565  and  _567
REMARK  223  A    between atoms: _567  and  _568
REMARK  224  A    between atoms: _567  and  _570
REMARK  225  A    between atoms: _572  and  _574
REMARK  226  A    between atoms: _574  and  _575
REMARK  227  A    between atoms: _574  and  _577
REMARK  228  A    between atoms: _577  and  _578
REMARK  229  A    between atoms: _583  and  _584
REMARK                            x       y       z     vdW  Elec       q    Type
REMARK                         _______ _______ _______ _____ _____    ______ ____
ROOT
ATOM      1  O   HOH     1      21.348  42.608  13.283  0.00  0.00    +0.000 OA
ENDROOT
TORSDOF 0
REMARK  Name = ../refined-set-2016/2a14/2a14_pocket.pdb
REMARK  229 active torsions:
REMARK  status: ('A' for Active; 'I' for Inactive)
REMARK    1  A    between atoms: _1  and  _5
REMARK    2  A    between atoms: _5  and  _6
REMARK    3  A    between atoms: _5  and  _8
REMARK    4  A    between atoms: _8  and  _9
REMARK    5  A    between atoms: _15  and  _17
REMARK    6  A    between atoms: _17  and  _18
REMARK    7  A    between atoms: _17  and  _20
REMARK    8  A    between atoms: _20  and  _21
REMARK    9  A    between atoms: _24  and  _26
REMARK   10  A    between atoms: _26  and  _27
REMARK   11  A    between atoms: _29  and  _31
REMARK   12  A    between atoms: _31  and  _32
REMARK   13  A    between atoms: _34  and  _36
REMARK   14  A    between atoms: _36  and  _37
REMARK   15  A    between atoms: _36  and  _39
REMARK   16  A    between atoms: _39  and  _40
REMARK   17  A    between atoms: _45  and  _46
REMARK   18  A    between atoms: _48  and  _50
REMARK   19  A    between atoms: _50  and  _51
REMARK   20  A    between atoms: _50  and  _53
REMARK   21  A    between atoms: _53  and  _54
REMARK   22  A    between atoms: _54  and  _55
REMARK   23  A    between atoms: _60  and  _62
REMARK   24  A    between atoms: _62  and  _63
REMARK   25  A    between atoms: _62  and  _65
REMARK   26  A    between atoms: _65  and  _66
REMARK   27  A    between atoms: _73  and  _74
REMARK   28  A    between atoms: _79  and  _81
REMARK   29  A    between atoms: _81  and  _82
REMARK   30  A    between atoms: _81  and  _84
REMARK   31  A    between atoms: _84  and  _85
REMARK   32  A    between atoms: _90  and  _91
REMARK   33  A    between atoms: _93  and  _95
REMARK   34  A    between atoms: _95  and  _96
REMARK   35  A    between atoms: _95  and  _98
REMARK   36  A    between atoms: _98  and  _99
REMARK   37  A    between atoms: _102  and  _104
REMARK   38  A    between atoms: _104  and  _105
REMARK   39  A    between atoms: _104  and  _107
REMARK   40  A    between atoms: _107  and  _108
REMARK   41  A    between atoms: _113  and  _114
REMARK   42  A    between atoms: _116  and  _118
REMARK   43  A    between atoms: _118  and  _119
REMARK   44  A    between atoms: _118  and  _121
REMARK   45  A    between atoms: _121  and  _122
REMARK   46  A    between atoms: _127  and  _128
REMARK   47  A    between atoms: _130  and  _132
REMARK   48  A    between atoms: _132  and  _133
REMARK   49  A    between atoms: _132  and  _135
REMARK   50  A    between atoms: _135  and  _136
REMARK   51  A    between atoms: _139  and  _141
REMARK   52  A    between atoms: _141  and  _142
REMARK   53  A    between atoms: _141  and  _144
REMARK   54  A    between atoms: _144  and  _145
REMARK   55  A    between atoms: _150  and  _152
REMARK   56  A    between atoms: _152  and  _153
REMARK   57  A    between atoms: _152  and  _155
REMARK   58  A    between atoms: _155  and  _156
REMARK   59  A    between atoms: _159  and  _161
REMARK   60  A    between atoms: _161  and  _162
REMARK   61  A    between atoms: _161  and  _164
REMARK   62  A    between atoms: _164  and  _165
REMARK   63  A    between atoms: _168  and  _170
REMARK   64  A    between atoms: _170  and  _171
REMARK   65  A    between atoms: _170  and  _173
REMARK   66  A    between atoms: _173  and  _174
REMARK   67  A    between atoms: _177  and  _179
REMARK   68  A    between atoms: _179  and  _180
REMARK   69  A    between atoms: _182  and  _184
REMARK   70  A    between atoms: _184  and  _185
REMARK   71  A    between atoms: _184  and  _187
REMARK   72  A    between atoms: _187  and  _188
REMARK   73  A    between atoms: _190  and  _192
REMARK   74  A    between atoms: _192  and  _193
REMARK   75  A    between atoms: _196  and  _197
REMARK   76  A    between atoms: _202  and  _204
REMARK   77  A    between atoms: _204  and  _205
REMARK   78  A    between atoms: _204  and  _207
REMARK   79  A    between atoms: _207  and  _208
REMARK   80  A    between atoms: _211  and  _213
REMARK   81  A    between atoms: _213  and  _214
REMARK   82  A    between atoms: _213  and  _216
REMARK   83  A    between atoms: _216  and  _217
REMARK   84  A    between atoms: _220  and  _222
REMARK   85  A    between atoms: _222  and  _223
REMARK   86  A    between atoms: _222  and  _225
REMARK   87  A    between atoms: _225  and  _226
REMARK   88  A    between atoms: _231  and  _232
REMARK   89  A    between atoms: _234  and  _236
REMARK   90  A    between atoms: _236  and  _237
REMARK   91  A    between atoms: _236  and  _239
REMARK   92  A    between atoms: _239  and  _240
REMARK   93  A    between atoms: _240  and  _241
REMARK   94  A    between atoms: _246  and  _248
REMARK   95  A    between atoms: _248  and  _249
REMARK   96  A    between atoms: _248  and  _251
REMARK   97  A    between atoms: _251  and  _252
REMARK   98  A    between atoms: _254  and  _256
REMARK   99  A    between atoms: _256  and  _257
REMARK  100  A    between atoms: _256  and  _259
REMARK  101  A    between atoms: _259  and  _260
REMARK  102  A    between atoms: _263  and  _265
REMARK  103  A    between atoms: _265  and  _266
REMARK  104  A    between atoms: _265  and  _268
REMARK  105  A    between atoms: _268  and  _269
REMARK  106  A    between atoms: _275  and  _277
REMARK  107  A    between atoms: _277  and  _278
REMARK  108  A    between atoms: _277  and  _280
REMARK  109  A    between atoms: _280  and  _281
REMARK  110  A    between atoms: _284  and  _286
REMARK  111  A    between atoms: _286  and  _287
REMARK  112  A    between atoms: _286  and  _289
REMARK  113  A    between atoms: _289  and  _290
REMARK  114  A    between atoms: _293  and  _295
REMARK  115  A    between atoms: _295  and  _296
REMARK  116  A    between atoms: _295  and  _298
REMARK  117  A    between atoms: _298  and  _299
REMARK  118  A    between atoms: _299  and  _300
REMARK  119  A    between atoms: _300  and  _301
REMARK  120  A    between atoms: _310  and  _312
REMARK  121  A    between atoms: _312  and  _313
REMARK  122  A    between atoms: _312  and  _315
REMARK  123  A    between atoms: _315  and  _316
REMARK  124  A    between atoms: _321  and  _323
REMARK  125  A    between atoms: _323  and  _324
REMARK  126  A    between atoms: _323  and  _326
REMARK  127  A    between atoms: _326  and  _327
REMARK  128  A    between atoms: _327  and  _328
REMARK  129  A    between atoms: _328  and  _329
REMARK  130  A    between atoms: _338  and  _340
REMARK  131  A    between atoms: _340  and  _341
REMARK  132  A    between atoms: _340  and  _343
REMARK  133  A    between atoms: _343  and  _344
REMARK  134  A    between atoms: _354  and  _356
REMARK  135  A    between atoms: _356  and  _357
REMARK  136  A    between atoms: _356  and  _359
REMARK  137  A    between atoms: _359  and  _360
REMARK  138  A    between atoms: _360  and  _361
REMARK  139  A    between atoms: _361  and  _362
REMARK  140  A    between atoms: _362  and  _363
REMARK  141  A    between atoms: _367  and  _369
REMARK  142  A    between atoms: _369  and  _370
REMARK  143  A    between atoms: _369  and  _372
REMARK  144  A    between atoms: _374  and  _376
REMARK  145  A    between atoms: _376  and  _377
REMARK  146  A    between atoms: _376  and  _379
REMARK  147  A    between atoms: _379  and  _380
REMARK  148  A    between atoms: _383  and  _385
REMARK  149  A    between atoms: _385  and  _386
REMARK  150  A    between atoms: _385  and  _388
REMARK  151  A    between atoms: _391  and  _393
REMARK  152  A    between atoms: _393  and  _394
REMARK  153  A    between atoms: _393  and  _396
REMARK  154  A    between atoms: _396  and  _397
REMARK  155  A    between atoms: _402  and  _404
REMARK  156  A    between atoms: _404  and  _405
REMARK  157  A    between atoms: _404  and  _407
REMARK  158  A    between atoms: _407  and  _408
REMARK  159  A    between atoms: _412  and  _413
REMARK  160  A    between atoms: _418  and  _420
REMARK  161  A    between atoms: _420  and  _421
REMARK  162  A    between atoms: _420  and  _423
REMARK  163  A    between atoms: _423  and  _424
REMARK  164  A    between atoms: _427  and  _429
REMARK  165  A    between atoms: _429  and  _430
REMARK  166  A    between atoms: _429  and  _432
REMARK  167  A    between atoms: _432  and  _433
REMARK  168  A    between atoms: _436  and  _438
REMARK  169  A    between atoms: _438  and  _439
REMARK  170  A    between atoms: _438  and  _441
REMARK  171  A    between atoms: _441  and  _442
REMARK  172  A    between atoms: _445  and  _447
REMARK  173  A    between atoms: _447  and  _448
REMARK  174  A    between atoms: _447  and  _450
REMARK  175  A    between atoms: _450  and  _451
REMARK  176  A    between atoms: _454  and  _456
REMARK  177  A    between atoms: _456  and  _457
REMARK  178  A    between atoms: _460  and  _462
REMARK  179  A    between atoms: _462  and  _463
REMARK  180  A    between atoms: _462  and  _465
REMARK  181  A    between atoms: _465  and  _466
REMARK  182  A    between atoms: _466  and  _467
REMARK  183  A    between atoms: _469  and  _471
REMARK  184  A    between atoms: _471  and  _472
REMARK  185  A    between atoms: _471  and  _474
REMARK  186  A    between atoms: _474  and  _475
REMARK  187  A    between atoms: _475  and  _476
REMARK  188  A    between atoms: _479  and  _481
REMARK  189  A    between atoms: _481  and  _482
REMARK  190  A    between atoms: _481  and  _484
REMARK  191  A    between atoms: _486  and  _488
REMARK  192  A    between atoms: _488  and  _489
REMARK  193  A    between atoms: _492  and  _494
REMARK  194  A    between atoms: _494  and  _495
REMARK  195  A    between atoms: _494  and  _497
REMARK  196  A    between atoms: _499  and  _501
REMARK  197  A    between atoms: _501  and  _502
REMARK  198  A    between atoms: _505  and  _507
REMARK  199  A    between atoms: _507  and  _508
REMARK  200  A    between atoms: _507  and  _510
REMARK  201  A    between atoms: _510  and  _511
REMARK  202  A    between atoms: _514  and  _516
REMARK  203  A    between atoms: _516  and  _517
REMARK  204  A    between atoms: _516  and  _519
REMARK  205  A    between atoms: _519  and  _520
REMARK  206  A    between atoms: _523  and  _525
REMARK  207  A    between atoms: _525  and  _526
REMARK  208  A    between atoms: _525  and  _528
REMARK  209  A    between atoms: _528  and  _529
REMARK  210  A    between atoms: _534  and  _535
REMARK  211  A    between atoms: _537  and  _539
REMARK  212  A    between atoms: _539  and  _540
REMARK  213  A    between atoms: _539  and  _542
REMARK  214  A    between atoms: _545  and  _547
REMARK  215  A    between atoms: _547  and  _548
REMARK  216  A    between atoms: _547  and  _550
REMARK  217  A    between atoms: _550  and  _551
REMARK  218  A    between atoms: _557  and  _559
REMARK  219  A    between atoms: _559  and  _560
REMARK  220  A    between atoms: _559  and  _562
REMARK  221  A    between atoms: _562  and  _563
REMARK  222  A    between atoms: _565  and  _567
REMARK  223  A    between atoms: _567  and  _568
REMARK  224  A    between atoms: _567  and  _570
REMARK  225  A    between atoms: _572  and  _574
REMARK  226  A    between atoms: _574  and  _575
REMARK  227  A    between atoms: _574  and  _577
REMARK  228  A    between atoms: _577  and  _578
REMARK  229  A    between atoms: _583  and  _584
REMARK                            x       y       z     vdW  Elec       q    Type
REMARK                         _______ _______ _______ _____ _____    ______ ____
ROOT
ATOM      1  O   HOH     1      26.887  52.845  -0.976  0.00  0.00    +0.000 OA
ENDROOT
TORSDOF 0
REMARK  Name = ../refined-set-2016/2a14/2a14_pocket.pdb
REMARK  229 active torsions:
REMARK  status: ('A' for Active; 'I' for Inactive)
REMARK    1  A    between atoms: _1  and  _5
REMARK    2  A    between atoms: _5  and  _6
REMARK    3  A    between atoms: _5  and  _8
REMARK    4  A    between atoms: _8  and  _9
REMARK    5  A    between atoms: _15  and  _17
REMARK    6  A    between atoms: _17  and  _18
REMARK    7  A    between atoms: _17  and  _20
REMARK    8  A    between atoms: _20  and  _21
REMARK    9  A    between atoms: _24  and  _26
REMARK   10  A    between atoms: _26  and  _27
REMARK   11  A    between atoms: _29  and  _31
REMARK   12  A    between atoms: _31  and  _32
REMARK   13  A    between atoms: _34  and  _36
REMARK   14  A    between atoms: _36  and  _37
REMARK   15  A    between atoms: _36  and  _39
REMARK   16  A    between atoms: _39  and  _40
REMARK   17  A    between atoms: _45  and  _46
REMARK   18  A    between atoms: _48  and  _50
REMARK   19  A    between atoms: _50  and  _51
REMARK   20  A    between atoms: _50  and  _53
REMARK   21  A    between atoms: _53  and  _54
REMARK   22  A    between atoms: _54  and  _55
REMARK   23  A    between atoms: _60  and  _62
REMARK   24  A    between atoms: _62  and  _63
REMARK   25  A    between atoms: _62  and  _65
REMARK   26  A    between atoms: _65  and  _66
REMARK   27  A    between atoms: _73  and  _74
REMARK   28  A    between atoms: _79  and  _81
REMARK   29  A    between atoms: _81  and  _82
REMARK   30  A    between atoms: _81  and  _84
REMARK   31  A    between atoms: _84  and  _85
REMARK   32  A    between atoms: _90  and  _91
REMARK   33  A    between atoms: _93  and  _95
REMARK   34  A    between atoms: _95  and  _96
REMARK   35  A    between atoms: _95  and  _98
REMARK   36  A    between atoms: _98  and  _99
REMARK   37  A    between atoms: _102  and  _104
REMARK   38  A    between atoms: _104  and  _105
REMARK   39  A    between atoms: _104  and  _107
REMARK   40  A    between atoms: _107  and  _108
REMARK   41  A    between atoms: _113  and  _114
REMARK   42  A    between atoms: _116  and  _118
REMARK   43  A    between atoms: _118  and  _119
REMARK   44  A    between atoms: _118  and  _121
REMARK   45  A    between atoms: _121  and  _122
REMARK   46  A    between atoms: _127  and  _128
REMARK   47  A    between atoms: _130  and  _132
REMARK   48  A    between atoms: _132  and  _133
REMARK   49  A    between atoms: _132  and  _135
REMARK   50  A    between atoms: _135  and  _136
REMARK   51  A    between atoms: _139  and  _141
REMARK   52  A    between atoms: _141  and  _142
REMARK   53  A    between atoms: _141  and  _144
REMARK   54  A    between atoms: _144  and  _145
REMARK   55  A    between atoms: _150  and  _152
REMARK   56  A    between atoms: _152  and  _153
REMARK   57  A    between atoms: _152  and  _155
REMARK   58  A    between atoms: _155  and  _156
REMARK   59  A    between atoms: _159  and  _161
REMARK   60  A    between atoms: _161  and  _162
REMARK   61  A    between atoms: _161  and  _164
REMARK   62  A    between atoms: _164  and  _165
REMARK   63  A    between atoms: _168  and  _170
REMARK   64  A    between atoms: _170  and  _171
REMARK   65  A    between atoms: _170  and  _173
REMARK   66  A    between atoms: _173  and  _174
REMARK   67  A    between atoms: _177  and  _179
REMARK   68  A    between atoms: _179  and  _180
REMARK   69  A    between atoms: _182  and  _184
REMARK   70  A    between atoms: _184  and  _185
REMARK   71  A    between atoms: _184  and  _187
REMARK   72  A    between atoms: _187  and  _188
REMARK   73  A    between atoms: _190  and  _192
REMARK   74  A    between atoms: _192  and  _193
REMARK   75  A    between atoms: _196  and  _197
REMARK   76  A    between atoms: _202  and  _204
REMARK   77  A    between atoms: _204  and  _205
REMARK   78  A    between atoms: _204  and  _207
REMARK   79  A    between atoms: _207  and  _208
REMARK   80  A    between atoms: _211  and  _213
REMARK   81  A    between atoms: _213  and  _214
REMARK   82  A    between atoms: _213  and  _216
REMARK   83  A    between atoms: _216  and  _217
REMARK   84  A    between atoms: _220  and  _222
REMARK   85  A    between atoms: _222  and  _223
REMARK   86  A    between atoms: _222  and  _225
REMARK   87  A    between atoms: _225  and  _226
REMARK   88  A    between atoms: _231  and  _232
REMARK   89  A    between atoms: _234  and  _236
REMARK   90  A    between atoms: _236  and  _237
REMARK   91  A    between atoms: _236  and  _239
REMARK   92  A    between atoms: _239  and  _240
REMARK   93  A    between atoms: _240  and  _241
REMARK   94  A    between atoms: _246  and  _248
REMARK   95  A    between atoms: _248  and  _249
REMARK   96  A    between atoms: _248  and  _251
REMARK   97  A    between atoms: _251  and  _252
REMARK   98  A    between atoms: _254  and  _256
REMARK   99  A    between atoms: _256  and  _257
REMARK  100  A    between atoms: _256  and  _259
REMARK  101  A    between atoms: _259  and  _260
REMARK  102  A    between atoms: _263  and  _265
REMARK  103  A    between atoms: _265  and  _266
REMARK  104  A    between atoms: _265  and  _268
REMARK  105  A    between atoms: _268  and  _269
REMARK  106  A    between atoms: _275  and  _277
REMARK  107  A    between atoms: _277  and  _278
REMARK  108  A    between atoms: _277  and  _280
REMARK  109  A    between atoms: _280  and  _281
REMARK  110  A    between atoms: _284  and  _286
REMARK  111  A    between atoms: _286  and  _287
REMARK  112  A    between atoms: _286  and  _289
REMARK  113  A    between atoms: _289  and  _290
REMARK  114  A    between atoms: _293  and  _295
REMARK  115  A    between atoms: _295  and  _296
REMARK  116  A    between atoms: _295  and  _298
REMARK  117  A    between atoms: _298  and  _299
REMARK  118  A    between atoms: _299  and  _300
REMARK  119  A    between atoms: _300  and  _301
REMARK  120  A    between atoms: _310  and  _312
REMARK  121  A    between atoms: _312  and  _313
REMARK  122  A    between atoms: _312  and  _315
REMARK  123  A    between atoms: _315  and  _316
REMARK  124  A    between atoms: _321  and  _323
REMARK  125  A    between atoms: _323  and  _324
REMARK  126  A    between atoms: _323  and  _326
REMARK  127  A    between atoms: _326  and  _327
REMARK  128  A    between atoms: _327  and  _328
REMARK  129  A    between atoms: _328  and  _329
REMARK  130  A    between atoms: _338  and  _340
REMARK  131  A    between atoms: _340  and  _341
REMARK  132  A    between atoms: _340  and  _343
REMARK  133  A    between atoms: _343  and  _344
REMARK  134  A    between atoms: _354  and  _356
REMARK  135  A    between atoms: _356  and  _357
REMARK  136  A    between atoms: _356  and  _359
REMARK  137  A    between atoms: _359  and  _360
REMARK  138  A    between atoms: _360  and  _361
REMARK  139  A    between atoms: _361  and  _362
REMARK  140  A    between atoms: _362  and  _363
REMARK  141  A    between atoms: _367  and  _369
REMARK  142  A    between atoms: _369  and  _370
REMARK  143  A    between atoms: _369  and  _372
REMARK  144  A    between atoms: _374  and  _376
REMARK  145  A    between atoms: _376  and  _377
REMARK  146  A    between atoms: _376  and  _379
REMARK  147  A    between atoms: _379  and  _380
REMARK  148  A    between atoms: _383  and  _385
REMARK  149  A    between atoms: _385  and  _386
REMARK  150  A    between atoms: _385  and  _388
REMARK  151  A    between atoms: _391  and  _393
REMARK  152  A    between atoms: _393  and  _394
REMARK  153  A    between atoms: _393  and  _396
REMARK  154  A    between atoms: _396  and  _397
REMARK  155  A    between atoms: _402  and  _404
REMARK  156  A    between atoms: _404  and  _405
REMARK  157  A    between atoms: _404  and  _407
REMARK  158  A    between atoms: _407  and  _408
REMARK  159  A    between atoms: _412  and  _413
REMARK  160  A    between atoms: _418  and  _420
REMARK  161  A    between atoms: _420  and  _421
REMARK  162  A    between atoms: _420  and  _423
REMARK  163  A    between atoms: _423  and  _424
REMARK  164  A    between atoms: _427  and  _429
REMARK  165  A    between atoms: _429  and  _430
REMARK  166  A    between atoms: _429  and  _432
REMARK  167  A    between atoms: _432  and  _433
REMARK  168  A    between atoms: _436  and  _438
REMARK  169  A    between atoms: _438  and  _439
REMARK  170  A    between atoms: _438  and  _441
REMARK  171  A    between atoms: _441  and  _442
REMARK  172  A    between atoms: _445  and  _447
REMARK  173  A    between atoms: _447  and  _448
REMARK  174  A    between atoms: _447  and  _450
REMARK  175  A    between atoms: _450  and  _451
REMARK  176  A    between atoms: _454  and  _456
REMARK  177  A    between atoms: _456  and  _457
REMARK  178  A    between atoms: _460  and  _462
REMARK  179  A    between atoms: _462  and  _463
REMARK  180  A    between atoms: _462  and  _465
REMARK  181  A    between atoms: _465  and  _466
REMARK  182  A    between atoms: _466  and  _467
REMARK  183  A    between atoms: _469  and  _471
REMARK  184  A    between atoms: _471  and  _472
REMARK  185  A    between atoms: _471  and  _474
REMARK  186  A    between atoms: _474  and  _475
REMARK  187  A    between atoms: _475  and  _476
REMARK  188  A    between atoms: _479  and  _481
REMARK  189  A    between atoms: _481  and  _482
REMARK  190  A    between atoms: _481  and  _484
REMARK  191  A    between atoms: _486  and  _488
REMARK  192  A    between atoms: _488  and  _489
REMARK  193  A    between atoms: _492  and  _494
REMARK  194  A    between atoms: _494  and  _495
REMARK  195  A    between atoms: _494  and  _497
REMARK  196  A    between atoms: _499  and  _501
REMARK  197  A    between atoms: _501  and  _502
REMARK  198  A    between atoms: _505  and  _507
REMARK  199  A    between atoms: _507  and  _508
REMARK  200  A    between atoms: _507  and  _510
REMARK  201  A    between atoms: _510  and  _511
REMARK  202  A    between atoms: _514  and  _516
REMARK  203  A    between atoms: _516  and  _517
REMARK  204  A    between atoms: _516  and  _519
REMARK  205  A    between atoms: _519  and  _520
REMARK  206  A    between atoms: _523  and  _525
REMARK  207  A    between atoms: _525  and  _526
REMARK  208  A    between atoms: _525  and  _528
REMARK  209  A    between atoms: _528  and  _529
REMARK  210  A    between atoms: _534  and  _535
REMARK  211  A    between atoms: _537  and  _539
REMARK  212  A    between atoms: _539  and  _540
REMARK  213  A    between atoms: _539  and  _542
REMARK  214  A    between atoms: _545  and  _547
REMARK  215  A    between atoms: _547  and  _548
REMARK  216  A    between atoms: _547  and  _550
REMARK  217  A    between atoms: _550  and  _551
REMARK  218  A    between atoms: _557  and  _559
REMARK  219  A    between atoms: _559  and  _560
REMARK  220  A    between atoms: _559  and  _562
REMARK  221  A    between atoms: _562  and  _563
REMARK  222  A    between atoms: _565  and  _567
REMARK  223  A    between atoms: _567  and  _568
REMARK  224  A    between atoms: _567  and  _570
REMARK  225  A    between atoms: _572  and  _574
REMARK  226  A    between atoms: _574  and  _575
REMARK  227  A    between atoms: _574  and  _577
REMARK  228  A    between atoms: _577  and  _578
REMARK  229  A    between atoms: _583  and  _584
REMARK                            x       y       z     vdW  Elec       q    Type
REMARK                         _______ _______ _______ _____ _____    ______ ____
ROOT
ATOM      1  O   HOH     1      21.577  43.966  15.576  0.00  0.00    +0.000 OA
ENDROOT
TORSDOF 0
REMARK  Name = ../refined-set-2016/2a14/2a14_pocket.pdb
REMARK  229 active torsions:
REMARK  status: ('A' for Active; 'I' for Inactive)
REMARK    1  A    between atoms: _1  and  _5
REMARK    2  A    between atoms: _5  and  _6
REMARK    3  A    between atoms: _5  and  _8
REMARK    4  A    between atoms: _8  and  _9
REMARK    5  A    between atoms: _15  and  _17
REMARK    6  A    between atoms: _17  and  _18
REMARK    7  A    between atoms: _17  and  _20
REMARK    8  A    between atoms: _20  and  _21
REMARK    9  A    between atoms: _24  and  _26
REMARK   10  A    between atoms: _26  and  _27
REMARK   11  A    between atoms: _29  and  _31
REMARK   12  A    between atoms: _31  and  _32
REMARK   13  A    between atoms: _34  and  _36
REMARK   14  A    between atoms: _36  and  _37
REMARK   15  A    between atoms: _36  and  _39
REMARK   16  A    between atoms: _39  and  _40
REMARK   17  A    between atoms: _45  and  _46
REMARK   18  A    between atoms: _48  and  _50
REMARK   19  A    between atoms: _50  and  _51
REMARK   20  A    between atoms: _50  and  _53
REMARK   21  A    between atoms: _53  and  _54
REMARK   22  A    between atoms: _54  and  _55
REMARK   23  A    between atoms: _60  and  _62
REMARK   24  A    between atoms: _62  and  _63
REMARK   25  A    between atoms: _62  and  _65
REMARK   26  A    between atoms: _65  and  _66
REMARK   27  A    between atoms: _73  and  _74
REMARK   28  A    between atoms: _79  and  _81
REMARK   29  A    between atoms: _81  and  _82
REMARK   30  A    between atoms: _81  and  _84
REMARK   31  A    between atoms: _84  and  _85
REMARK   32  A    between atoms: _90  and  _91
REMARK   33  A    between atoms: _93  and  _95
REMARK   34  A    between atoms: _95  and  _96
REMARK   35  A    between atoms: _95  and  _98
REMARK   36  A    between atoms: _98  and  _99
REMARK   37  A    between atoms: _102  and  _104
REMARK   38  A    between atoms: _104  and  _105
REMARK   39  A    between atoms: _104  and  _107
REMARK   40  A    between atoms: _107  and  _108
REMARK   41  A    between atoms: _113  and  _114
REMARK   42  A    between atoms: _116  and  _118
REMARK   43  A    between atoms: _118  and  _119
REMARK   44  A    between atoms: _118  and  _121
REMARK   45  A    between atoms: _121  and  _122
REMARK   46  A    between atoms: _127  and  _128
REMARK   47  A    between atoms: _130  and  _132
REMARK   48  A    between atoms: _132  and  _133
REMARK   49  A    between atoms: _132  and  _135
REMARK   50  A    between atoms: _135  and  _136
REMARK   51  A    between atoms: _139  and  _141
REMARK   52  A    between atoms: _141  and  _142
REMARK   53  A    between atoms: _141  and  _144
REMARK   54  A    between atoms: _144  and  _145
REMARK   55  A    between atoms: _150  and  _152
REMARK   56  A    between atoms: _152  and  _153
REMARK   57  A    between atoms: _152  and  _155
REMARK   58  A    between atoms: _155  and  _156
REMARK   59  A    between atoms: _159  and  _161
REMARK   60  A    between atoms: _161  and  _162
REMARK   61  A    between atoms: _161  and  _164
REMARK   62  A    between atoms: _164  and  _165
REMARK   63  A    between atoms: _168  and  _170
REMARK   64  A    between atoms: _170  and  _171
REMARK   65  A    between atoms: _170  and  _173
REMARK   66  A    between atoms: _173  and  _174
REMARK   67  A    between atoms: _177  and  _179
REMARK   68  A    between atoms: _179  and  _180
REMARK   69  A    between atoms: _182  and  _184
REMARK   70  A    between atoms: _184  and  _185
REMARK   71  A    between atoms: _184  and  _187
REMARK   72  A    between atoms: _187  and  _188
REMARK   73  A    between atoms: _190  and  _192
REMARK   74  A    between atoms: _192  and  _193
REMARK   75  A    between atoms: _196  and  _197
REMARK   76  A    between atoms: _202  and  _204
REMARK   77  A    between atoms: _204  and  _205
REMARK   78  A    between atoms: _204  and  _207
REMARK   79  A    between atoms: _207  and  _208
REMARK   80  A    between atoms: _211  and  _213
REMARK   81  A    between atoms: _213  and  _214
REMARK   82  A    between atoms: _213  and  _216
REMARK   83  A    between atoms: _216  and  _217
REMARK   84  A    between atoms: _220  and  _222
REMARK   85  A    between atoms: _222  and  _223
REMARK   86  A    between atoms: _222  and  _225
REMARK   87  A    between atoms: _225  and  _226
REMARK   88  A    between atoms: _231  and  _232
REMARK   89  A    between atoms: _234  and  _236
REMARK   90  A    between atoms: _236  and  _237
REMARK   91  A    between atoms: _236  and  _239
REMARK   92  A    between atoms: _239  and  _240
REMARK   93  A    between atoms: _240  and  _241
REMARK   94  A    between atoms: _246  and  _248
REMARK   95  A    between atoms: _248  and  _249
REMARK   96  A    between atoms: _248  and  _251
REMARK   97  A    between atoms: _251  and  _252
REMARK   98  A    between atoms: _254  and  _256
REMARK   99  A    between atoms: _256  and  _257
REMARK  100  A    between atoms: _256  and  _259
REMARK  101  A    between atoms: _259  and  _260
REMARK  102  A    between atoms: _263  and  _265
REMARK  103  A    between atoms: _265  and  _266
REMARK  104  A    between atoms: _265  and  _268
REMARK  105  A    between atoms: _268  and  _269
REMARK  106  A    between atoms: _275  and  _277
REMARK  107  A    between atoms: _277  and  _278
REMARK  108  A    between atoms: _277  and  _280
REMARK  109  A    between atoms: _280  and  _281
REMARK  110  A    between atoms: _284  and  _286
REMARK  111  A    between atoms: _286  and  _287
REMARK  112  A    between atoms: _286  and  _289
REMARK  113  A    between atoms: _289  and  _290
REMARK  114  A    between atoms: _293  and  _295
REMARK  115  A    between atoms: _295  and  _296
REMARK  116  A    between atoms: _295  and  _298
REMARK  117  A    between atoms: _298  and  _299
REMARK  118  A    between atoms: _299  and  _300
REMARK  119  A    between atoms: _300  and  _301
REMARK  120  A    between atoms: _310  and  _312
REMARK  121  A    between atoms: _312  and  _313
REMARK  122  A    between atoms: _312  and  _315
REMARK  123  A    between atoms: _315  and  _316
REMARK  124  A    between atoms: _321  and  _323
REMARK  125  A    between atoms: _323  and  _324
REMARK  126  A    between atoms: _323  and  _326
REMARK  127  A    between atoms: _326  and  _327
REMARK  128  A    between atoms: _327  and  _328
REMARK  129  A    between atoms: _328  and  _329
REMARK  130  A    between atoms: _338  and  _340
REMARK  131  A    between atoms: _340  and  _341
REMARK  132  A    between atoms: _340  and  _343
REMARK  133  A    between atoms: _343  and  _344
REMARK  134  A    between atoms: _354  and  _356
REMARK  135  A    between atoms: _356  and  _357
REMARK  136  A    between atoms: _356  and  _359
REMARK  137  A    between atoms: _359  and  _360
REMARK  138  A    between atoms: _360  and  _361
REMARK  139  A    between atoms: _361  and  _362
REMARK  140  A    between atoms: _362  and  _363
REMARK  141  A    between atoms: _367  and  _369
REMARK  142  A    between atoms: _369  and  _370
REMARK  143  A    between atoms: _369  and  _372
REMARK  144  A    between atoms: _374  and  _376
REMARK  145  A    between atoms: _376  and  _377
REMARK  146  A    between atoms: _376  and  _379
REMARK  147  A    between atoms: _379  and  _380
REMARK  148  A    between atoms: _383  and  _385
REMARK  149  A    between atoms: _385  and  _386
REMARK  150  A    between atoms: _385  and  _388
REMARK  151  A    between atoms: _391  and  _393
REMARK  152  A    between atoms: _393  and  _394
REMARK  153  A    between atoms: _393  and  _396
REMARK  154  A    between atoms: _396  and  _397
REMARK  155  A    between atoms: _402  and  _404
REMARK  156  A    between atoms: _404  and  _405
REMARK  157  A    between atoms: _404  and  _407
REMARK  158  A    between atoms: _407  and  _408
REMARK  159  A    between atoms: _412  and  _413
REMARK  160  A    between atoms: _418  and  _420
REMARK  161  A    between atoms: _420  and  _421
REMARK  162  A    between atoms: _420  and  _423
REMARK  163  A    between atoms: _423  and  _424
REMARK  164  A    between atoms: _427  and  _429
REMARK  165  A    between atoms: _429  and  _430
REMARK  166  A    between atoms: _429  and  _432
REMARK  167  A    between atoms: _432  and  _433
REMARK  168  A    between atoms: _436  and  _438
REMARK  169  A    between atoms: _438  and  _439
REMARK  170  A    between atoms: _438  and  _441
REMARK  171  A    between atoms: _441  and  _442
REMARK  172  A    between atoms: _445  and  _447
REMARK  173  A    between atoms: _447  and  _448
REMARK  174  A    between atoms: _447  and  _450
REMARK  175  A    between atoms: _450  and  _451
REMARK  176  A    between atoms: _454  and  _456
REMARK  177  A    between atoms: _456  and  _457
REMARK  178  A    between atoms: _460  and  _462
REMARK  179  A    between atoms: _462  and  _463
REMARK  180  A    between atoms: _462  and  _465
REMARK  181  A    between atoms: _465  and  _466
REMARK  182  A    between atoms: _466  and  _467
REMARK  183  A    between atoms: _469  and  _471
REMARK  184  A    between atoms: _471  and  _472
REMARK  185  A    between atoms: _471  and  _474
REMARK  186  A    between atoms: _474  and  _475
REMARK  187  A    between atoms: _475  and  _476
REMARK  188  A    between atoms: _479  and  _481
REMARK  189  A    between atoms: _481  and  _482
REMARK  190  A    between atoms: _481  and  _484
REMARK  191  A    between atoms: _486  and  _488
REMARK  192  A    between atoms: _488  and  _489
REMARK  193  A    between atoms: _492  and  _494
REMARK  194  A    between atoms: _494  and  _495
REMARK  195  A    between atoms: _494  and  _497
REMARK  196  A    between atoms: _499  and  _501
REMARK  197  A    between atoms: _501  and  _502
REMARK  198  A    between atoms: _505  and  _507
REMARK  199  A    between atoms: _507  and  _508
REMARK  200  A    between atoms: _507  and  _510
REMARK  201  A    between atoms: _510  and  _511
REMARK  202  A    between atoms: _514  and  _516
REMARK  203  A    between atoms: _516  and  _517
REMARK  204  A    between atoms: _516  and  _519
REMARK  205  A    between atoms: _519  and  _520
REMARK  206  A    between atoms: _523  and  _525
REMARK  207  A    between atoms: _525  and  _526
REMARK  208  A    between atoms: _525  and  _528
REMARK  209  A    between atoms: _528  and  _529
REMARK  210  A    between atoms: _534  and  _535
REMARK  211  A    between atoms: _537  and  _539
REMARK  212  A    between atoms: _539  and  _540
REMARK  213  A    between atoms: _539  and  _542
REMARK  214  A    between atoms: _545  and  _547
REMARK  215  A    between atoms: _547  and  _548
REMARK  216  A    between atoms: _547  and  _550
REMARK  217  A    between atoms: _550  and  _551
REMARK  218  A    between atoms: _557  and  _559
REMARK  219  A    between atoms: _559  and  _560
REMARK  220  A    between atoms: _559  and  _562
REMARK  221  A    between atoms: _562  and  _563
REMARK  222  A    between atoms: _565  and  _567
REMARK  223  A    between atoms: _567  and  _568
REMARK  224  A    between atoms: _567  and  _570
REMARK  225  A    between atoms: _572  and  _574
REMARK  226  A    between atoms: _574  and  _575
REMARK  227  A    between atoms: _574  and  _577
REMARK  228  A    between atoms: _577  and  _578
REMARK  229  A    between atoms: _583  and  _584
REMARK                            x       y       z     vdW  Elec       q    Type
REMARK                         _______ _______ _______ _____ _____    ______ ____
ROOT
ATOM      1  O   HOH     1      22.075  57.264   2.006  0.00  0.00    +0.000 OA
ENDROOT
TORSDOF 0
REMARK  Name = ../refined-set-2016/2a14/2a14_pocket.pdb
REMARK  229 active torsions:
REMARK  status: ('A' for Active; 'I' for Inactive)
REMARK    1  A    between atoms: _1  and  _5
REMARK    2  A    between atoms: _5  and  _6
REMARK    3  A    between atoms: _5  and  _8
REMARK    4  A    between atoms: _8  and  _9
REMARK    5  A    between atoms: _15  and  _17
REMARK    6  A    between atoms: _17  and  _18
REMARK    7  A    between atoms: _17  and  _20
REMARK    8  A    between atoms: _20  and  _21
REMARK    9  A    between atoms: _24  and  _26
REMARK   10  A    between atoms: _26  and  _27
REMARK   11  A    between atoms: _29  and  _31
REMARK   12  A    between atoms: _31  and  _32
REMARK   13  A    between atoms: _34  and  _36
REMARK   14  A    between atoms: _36  and  _37
REMARK   15  A    between atoms: _36  and  _39
REMARK   16  A    between atoms: _39  and  _40
REMARK   17  A    between atoms: _45  and  _46
REMARK   18  A    between atoms: _48  and  _50
REMARK   19  A    between atoms: _50  and  _51
REMARK   20  A    between atoms: _50  and  _53
REMARK   21  A    between atoms: _53  and  _54
REMARK   22  A    between atoms: _54  and  _55
REMARK   23  A    between atoms: _60  and  _62
REMARK   24  A    between atoms: _62  and  _63
REMARK   25  A    between atoms: _62  and  _65
REMARK   26  A    between atoms: _65  and  _66
REMARK   27  A    between atoms: _73  and  _74
REMARK   28  A    between atoms: _79  and  _81
REMARK   29  A    between atoms: _81  and  _82
REMARK   30  A    between atoms: _81  and  _84
REMARK   31  A    between atoms: _84  and  _85
REMARK   32  A    between atoms: _90  and  _91
REMARK   33  A    between atoms: _93  and  _95
REMARK   34  A    between atoms: _95  and  _96
REMARK   35  A    between atoms: _95  and  _98
REMARK   36  A    between atoms: _98  and  _99
REMARK   37  A    between atoms: _102  and  _104
REMARK   38  A    between atoms: _104  and  _105
REMARK   39  A    between atoms: _104  and  _107
REMARK   40  A    between atoms: _107  and  _108
REMARK   41  A    between atoms: _113  and  _114
REMARK   42  A    between atoms: _116  and  _118
REMARK   43  A    between atoms: _118  and  _119
REMARK   44  A    between atoms: _118  and  _121
REMARK   45  A    between atoms: _121  and  _122
REMARK   46  A    between atoms: _127  and  _128
REMARK   47  A    between atoms: _130  and  _132
REMARK   48  A    between atoms: _132  and  _133
REMARK   49  A    between atoms: _132  and  _135
REMARK   50  A    between atoms: _135  and  _136
REMARK   51  A    between atoms: _139  and  _141
REMARK   52  A    between atoms: _141  and  _142
REMARK   53  A    between atoms: _141  and  _144
REMARK   54  A    between atoms: _144  and  _145
REMARK   55  A    between atoms: _150  and  _152
REMARK   56  A    between atoms: _152  and  _153
REMARK   57  A    between atoms: _152  and  _155
REMARK   58  A    between atoms: _155  and  _156
REMARK   59  A    between atoms: _159  and  _161
REMARK   60  A    between atoms: _161  and  _162
REMARK   61  A    between atoms: _161  and  _164
REMARK   62  A    between atoms: _164  and  _165
REMARK   63  A    between atoms: _168  and  _170
REMARK   64  A    between atoms: _170  and  _171
REMARK   65  A    between atoms: _170  and  _173
REMARK   66  A    between atoms: _173  and  _174
REMARK   67  A    between atoms: _177  and  _179
REMARK   68  A    between atoms: _179  and  _180
REMARK   69  A    between atoms: _182  and  _184
REMARK   70  A    between atoms: _184  and  _185
REMARK   71  A    between atoms: _184  and  _187
REMARK   72  A    between atoms: _187  and  _188
REMARK   73  A    between atoms: _190  and  _192
REMARK   74  A    between atoms: _192  and  _193
REMARK   75  A    between atoms: _196  and  _197
REMARK   76  A    between atoms: _202  and  _204
REMARK   77  A    between atoms: _204  and  _205
REMARK   78  A    between atoms: _204  and  _207
REMARK   79  A    between atoms: _207  and  _208
REMARK   80  A    between atoms: _211  and  _213
REMARK   81  A    between atoms: _213  and  _214
REMARK   82  A    between atoms: _213  and  _216
REMARK   83  A    between atoms: _216  and  _217
REMARK   84  A    between atoms: _220  and  _222
REMARK   85  A    between atoms: _222  and  _223
REMARK   86  A    between atoms: _222  and  _225
REMARK   87  A    between atoms: _225  and  _226
REMARK   88  A    between atoms: _231  and  _232
REMARK   89  A    between atoms: _234  and  _236
REMARK   90  A    between atoms: _236  and  _237
REMARK   91  A    between atoms: _236  and  _239
REMARK   92  A    between atoms: _239  and  _240
REMARK   93  A    between atoms: _240  and  _241
REMARK   94  A    between atoms: _246  and  _248
REMARK   95  A    between atoms: _248  and  _249
REMARK   96  A    between atoms: _248  and  _251
REMARK   97  A    between atoms: _251  and  _252
REMARK   98  A    between atoms: _254  and  _256
REMARK   99  A    between atoms: _256  and  _257
REMARK  100  A    between atoms: _256  and  _259
REMARK  101  A    between atoms: _259  and  _260
REMARK  102  A    between atoms: _263  and  _265
REMARK  103  A    between atoms: _265  and  _266
REMARK  104  A    between atoms: _265  and  _268
REMARK  105  A    between atoms: _268  and  _269
REMARK  106  A    between atoms: _275  and  _277
REMARK  107  A    between atoms: _277  and  _278
REMARK  108  A    between atoms: _277  and  _280
REMARK  109  A    between atoms: _280  and  _281
REMARK  110  A    between atoms: _284  and  _286
REMARK  111  A    between atoms: _286  and  _287
REMARK  112  A    between atoms: _286  and  _289
REMARK  113  A    between atoms: _289  and  _290
REMARK  114  A    between atoms: _293  and  _295
REMARK  115  A    between atoms: _295  and  _296
REMARK  116  A    between atoms: _295  and  _298
REMARK  117  A    between atoms: _298  and  _299
REMARK  118  A    between atoms: _299  and  _300
REMARK  119  A    between atoms: _300  and  _301
REMARK  120  A    between atoms: _310  and  _312
REMARK  121  A    between atoms: _312  and  _313
REMARK  122  A    between atoms: _312  and  _315
REMARK  123  A    between atoms: _315  and  _316
REMARK  124  A    between atoms: _321  and  _323
REMARK  125  A    between atoms: _323  and  _324
REMARK  126  A    between atoms: _323  and  _326
REMARK  127  A    between atoms: _326  and  _327
REMARK  128  A    between atoms: _327  and  _328
REMARK  129  A    between atoms: _328  and  _329
REMARK  130  A    between atoms: _338  and  _340
REMARK  131  A    between atoms: _340  and  _341
REMARK  132  A    between atoms: _340  and  _343
REMARK  133  A    between atoms: _343  and  _344
REMARK  134  A    between atoms: _354  and  _356
REMARK  135  A    between atoms: _356  and  _357
REMARK  136  A    between atoms: _356  and  _359
REMARK  137  A    between atoms: _359  and  _360
REMARK  138  A    between atoms: _360  and  _361
REMARK  139  A    between atoms: _361  and  _362
REMARK  140  A    between atoms: _362  and  _363
REMARK  141  A    between atoms: _367  and  _369
REMARK  142  A    between atoms: _369  and  _370
REMARK  143  A    between atoms: _369  and  _372
REMARK  144  A    between atoms: _374  and  _376
REMARK  145  A    between atoms: _376  and  _377
REMARK  146  A    between atoms: _376  and  _379
REMARK  147  A    between atoms: _379  and  _380
REMARK  148  A    between atoms: _383  and  _385
REMARK  149  A    between atoms: _385  and  _386
REMARK  150  A    between atoms: _385  and  _388
REMARK  151  A    between atoms: _391  and  _393
REMARK  152  A    between atoms: _393  and  _394
REMARK  153  A    between atoms: _393  and  _396
REMARK  154  A    between atoms: _396  and  _397
REMARK  155  A    between atoms: _402  and  _404
REMARK  156  A    between atoms: _404  and  _405
REMARK  157  A    between atoms: _404  and  _407
REMARK  158  A    between atoms: _407  and  _408
REMARK  159  A    between atoms: _412  and  _413
REMARK  160  A    between atoms: _418  and  _420
REMARK  161  A    between atoms: _420  and  _421
REMARK  162  A    between atoms: _420  and  _423
REMARK  163  A    between atoms: _423  and  _424
REMARK  164  A    between atoms: _427  and  _429
REMARK  165  A    between atoms: _429  and  _430
REMARK  166  A    between atoms: _429  and  _432
REMARK  167  A    between atoms: _432  and  _433
REMARK  168  A    between atoms: _436  and  _438
REMARK  169  A    between atoms: _438  and  _439
REMARK  170  A    between atoms: _438  and  _441
REMARK  171  A    between atoms: _441  and  _442
REMARK  172  A    between atoms: _445  and  _447
REMARK  173  A    between atoms: _447  and  _448
REMARK  174  A    between atoms: _447  and  _450
REMARK  175  A    between atoms: _450  and  _451
REMARK  176  A    between atoms: _454  and  _456
REMARK  177  A    between atoms: _456  and  _457
REMARK  178  A    between atoms: _460  and  _462
REMARK  179  A    between atoms: _462  and  _463
REMARK  180  A    between atoms: _462  and  _465
REMARK  181  A    between atoms: _465  and  _466
REMARK  182  A    between atoms: _466  and  _467
REMARK  183  A    between atoms: _469  and  _471
REMARK  184  A    between atoms: _471  and  _472
REMARK  185  A    between atoms: _471  and  _474
REMARK  186  A    between atoms: _474  and  _475
REMARK  187  A    between atoms: _475  and  _476
REMARK  188  A    between atoms: _479  and  _481
REMARK  189  A    between atoms: _481  and  _482
REMARK  190  A    between atoms: _481  and  _484
REMARK  191  A    between atoms: _486  and  _488
REMARK  192  A    between atoms: _488  and  _489
REMARK  193  A    between atoms: _492  and  _494
REMARK  194  A    between atoms: _494  and  _495
REMARK  195  A    between atoms: _494  and  _497
REMARK  196  A    between atoms: _499  and  _501
REMARK  197  A    between atoms: _501  and  _502
REMARK  198  A    between atoms: _505  and  _507
REMARK  199  A    between atoms: _507  and  _508
REMARK  200  A    between atoms: _507  and  _510
REMARK  201  A    between atoms: _510  and  _511
REMARK  202  A    between atoms: _514  and  _516
REMARK  203  A    between atoms: _516  and  _517
REMARK  204  A    between atoms: _516  and  _519
REMARK  205  A    between atoms: _519  and  _520
REMARK  206  A    between atoms: _523  and  _525
REMARK  207  A    between atoms: _525  and  _526
REMARK  208  A    between atoms: _525  and  _528
REMARK  209  A    between atoms: _528  and  _529
REMARK  210  A    between atoms: _534  and  _535
REMARK  211  A    between atoms: _537  and  _539
REMARK  212  A    between atoms: _539  and  _540
REMARK  213  A    between atoms: _539  and  _542
REMARK  214  A    between atoms: _545  and  _547
REMARK  215  A    between atoms: _547  and  _548
REMARK  216  A    between atoms: _547  and  _550
REMARK  217  A    between atoms: _550  and  _551
REMARK  218  A    between atoms: _557  and  _559
REMARK  219  A    between atoms: _559  and  _560
REMARK  220  A    between atoms: _559  and  _562
REMARK  221  A    between atoms: _562  and  _563
REMARK  222  A    between atoms: _565  and  _567
REMARK  223  A    between atoms: _567  and  _568
REMARK  224  A    between atoms: _567  and  _570
REMARK  225  A    between atoms: _572  and  _574
REMARK  226  A    between atoms: _574  and  _575
REMARK  227  A    between atoms: _574  and  _577
REMARK  228  A    between atoms: _577  and  _578
REMARK  229  A    between atoms: _583  and  _584
REMARK                            x       y       z     vdW  Elec       q    Type
REMARK                         _______ _______ _______ _____ _____    ______ ____
ROOT
ATOM      1  O   HOH     1      26.370  56.485   6.634  0.00  0.00    +0.000 OA
ENDROOT
TORSDOF 0
REMARK  Name = ../refined-set-2016/2a14/2a14_pocket.pdb
REMARK  229 active torsions:
REMARK  status: ('A' for Active; 'I' for Inactive)
REMARK    1  A    between atoms: _1  and  _5
REMARK    2  A    between atoms: _5  and  _6
REMARK    3  A    between atoms: _5  and  _8
REMARK    4  A    between atoms: _8  and  _9
REMARK    5  A    between atoms: _15  and  _17
REMARK    6  A    between atoms: _17  and  _18
REMARK    7  A    between atoms: _17  and  _20
REMARK    8  A    between atoms: _20  and  _21
REMARK    9  A    between atoms: _24  and  _26
REMARK   10  A    between atoms: _26  and  _27
REMARK   11  A    between atoms: _29  and  _31
REMARK   12  A    between atoms: _31  and  _32
REMARK   13  A    between atoms: _34  and  _36
REMARK   14  A    between atoms: _36  and  _37
REMARK   15  A    between atoms: _36  and  _39
REMARK   16  A    between atoms: _39  and  _40
REMARK   17  A    between atoms: _45  and  _46
REMARK   18  A    between atoms: _48  and  _50
REMARK   19  A    between atoms: _50  and  _51
REMARK   20  A    between atoms: _50  and  _53
REMARK   21  A    between atoms: _53  and  _54
REMARK   22  A    between atoms: _54  and  _55
REMARK   23  A    between atoms: _60  and  _62
REMARK   24  A    between atoms: _62  and  _63
REMARK   25  A    between atoms: _62  and  _65
REMARK   26  A    between atoms: _65  and  _66
REMARK   27  A    between atoms: _73  and  _74
REMARK   28  A    between atoms: _79  and  _81
REMARK   29  A    between atoms: _81  and  _82
REMARK   30  A    between atoms: _81  and  _84
REMARK   31  A    between atoms: _84  and  _85
REMARK   32  A    between atoms: _90  and  _91
REMARK   33  A    between atoms: _93  and  _95
REMARK   34  A    between atoms: _95  and  _96
REMARK   35  A    between atoms: _95  and  _98
REMARK   36  A    between atoms: _98  and  _99
REMARK   37  A    between atoms: _102  and  _104
REMARK   38  A    between atoms: _104  and  _105
REMARK   39  A    between atoms: _104  and  _107
REMARK   40  A    between atoms: _107  and  _108
REMARK   41  A    between atoms: _113  and  _114
REMARK   42  A    between atoms: _116  and  _118
REMARK   43  A    between atoms: _118  and  _119
REMARK   44  A    between atoms: _118  and  _121
REMARK   45  A    between atoms: _121  and  _122
REMARK   46  A    between atoms: _127  and  _128
REMARK   47  A    between atoms: _130  and  _132
REMARK   48  A    between atoms: _132  and  _133
REMARK   49  A    between atoms: _132  and  _135
REMARK   50  A    between atoms: _135  and  _136
REMARK   51  A    between atoms: _139  and  _141
REMARK   52  A    between atoms: _141  and  _142
REMARK   53  A    between atoms: _141  and  _144
REMARK   54  A    between atoms: _144  and  _145
REMARK   55  A    between atoms: _150  and  _152
REMARK   56  A    between atoms: _152  and  _153
REMARK   57  A    between atoms: _152  and  _155
REMARK   58  A    between atoms: _155  and  _156
REMARK   59  A    between atoms: _159  and  _161
REMARK   60  A    between atoms: _161  and  _162
REMARK   61  A    between atoms: _161  and  _164
REMARK   62  A    between atoms: _164  and  _165
REMARK   63  A    between atoms: _168  and  _170
REMARK   64  A    between atoms: _170  and  _171
REMARK   65  A    between atoms: _170  and  _173
REMARK   66  A    between atoms: _173  and  _174
REMARK   67  A    between atoms: _177  and  _179
REMARK   68  A    between atoms: _179  and  _180
REMARK   69  A    between atoms: _182  and  _184
REMARK   70  A    between atoms: _184  and  _185
REMARK   71  A    between atoms: _184  and  _187
REMARK   72  A    between atoms: _187  and  _188
REMARK   73  A    between atoms: _190  and  _192
REMARK   74  A    between atoms: _192  and  _193
REMARK   75  A    between atoms: _196  and  _197
REMARK   76  A    between atoms: _202  and  _204
REMARK   77  A    between atoms: _204  and  _205
REMARK   78  A    between atoms: _204  and  _207
REMARK   79  A    between atoms: _207  and  _208
REMARK   80  A    between atoms: _211  and  _213
REMARK   81  A    between atoms: _213  and  _214
REMARK   82  A    between atoms: _213  and  _216
REMARK   83  A    between atoms: _216  and  _217
REMARK   84  A    between atoms: _220  and  _222
REMARK   85  A    between atoms: _222  and  _223
REMARK   86  A    between atoms: _222  and  _225
REMARK   87  A    between atoms: _225  and  _226
REMARK   88  A    between atoms: _231  and  _232
REMARK   89  A    between atoms: _234  and  _236
REMARK   90  A    between atoms: _236  and  _237
REMARK   91  A    between atoms: _236  and  _239
REMARK   92  A    between atoms: _239  and  _240
REMARK   93  A    between atoms: _240  and  _241
REMARK   94  A    between atoms: _246  and  _248
REMARK   95  A    between atoms: _248  and  _249
REMARK   96  A    between atoms: _248  and  _251
REMARK   97  A    between atoms: _251  and  _252
REMARK   98  A    between atoms: _254  and  _256
REMARK   99  A    between atoms: _256  and  _257
REMARK  100  A    between atoms: _256  and  _259
REMARK  101  A    between atoms: _259  and  _260
REMARK  102  A    between atoms: _263  and  _265
REMARK  103  A    between atoms: _265  and  _266
REMARK  104  A    between atoms: _265  and  _268
REMARK  105  A    between atoms: _268  and  _269
REMARK  106  A    between atoms: _275  and  _277
REMARK  107  A    between atoms: _277  and  _278
REMARK  108  A    between atoms: _277  and  _280
REMARK  109  A    between atoms: _280  and  _281
REMARK  110  A    between atoms: _284  and  _286
REMARK  111  A    between atoms: _286  and  _287
REMARK  112  A    between atoms: _286  and  _289
REMARK  113  A    between atoms: _289  and  _290
REMARK  114  A    between atoms: _293  and  _295
REMARK  115  A    between atoms: _295  and  _296
REMARK  116  A    between atoms: _295  and  _298
REMARK  117  A    between atoms: _298  and  _299
REMARK  118  A    between atoms: _299  and  _300
REMARK  119  A    between atoms: _300  and  _301
REMARK  120  A    between atoms: _310  and  _312
REMARK  121  A    between atoms: _312  and  _313
REMARK  122  A    between atoms: _312  and  _315
REMARK  123  A    between atoms: _315  and  _316
REMARK  124  A    between atoms: _321  and  _323
REMARK  125  A    between atoms: _323  and  _324
REMARK  126  A    between atoms: _323  and  _326
REMARK  127  A    between atoms: _326  and  _327
REMARK  128  A    between atoms: _327  and  _328
REMARK  129  A    between atoms: _328  and  _329
REMARK  130  A    between atoms: _338  and  _340
REMARK  131  A    between atoms: _340  and  _341
REMARK  132  A    between atoms: _340  and  _343
REMARK  133  A    between atoms: _343  and  _344
REMARK  134  A    between atoms: _354  and  _356
REMARK  135  A    between atoms: _356  and  _357
REMARK  136  A    between atoms: _356  and  _359
REMARK  137  A    between atoms: _359  and  _360
REMARK  138  A    between atoms: _360  and  _361
REMARK  139  A    between atoms: _361  and  _362
REMARK  140  A    between atoms: _362  and  _363
REMARK  141  A    between atoms: _367  and  _369
REMARK  142  A    between atoms: _369  and  _370
REMARK  143  A    between atoms: _369  and  _372
REMARK  144  A    between atoms: _374  and  _376
REMARK  145  A    between atoms: _376  and  _377
REMARK  146  A    between atoms: _376  and  _379
REMARK  147  A    between atoms: _379  and  _380
REMARK  148  A    between atoms: _383  and  _385
REMARK  149  A    between atoms: _385  and  _386
REMARK  150  A    between atoms: _385  and  _388
REMARK  151  A    between atoms: _391  and  _393
REMARK  152  A    between atoms: _393  and  _394
REMARK  153  A    between atoms: _393  and  _396
REMARK  154  A    between atoms: _396  and  _397
REMARK  155  A    between atoms: _402  and  _404
REMARK  156  A    between atoms: _404  and  _405
REMARK  157  A    between atoms: _404  and  _407
REMARK  158  A    between atoms: _407  and  _408
REMARK  159  A    between atoms: _412  and  _413
REMARK  160  A    between atoms: _418  and  _420
REMARK  161  A    between atoms: _420  and  _421
REMARK  162  A    between atoms: _420  and  _423
REMARK  163  A    between atoms: _423  and  _424
REMARK  164  A    between atoms: _427  and  _429
REMARK  165  A    between atoms: _429  and  _430
REMARK  166  A    between atoms: _429  and  _432
REMARK  167  A    between atoms: _432  and  _433
REMARK  168  A    between atoms: _436  and  _438
REMARK  169  A    between atoms: _438  and  _439
REMARK  170  A    between atoms: _438  and  _441
REMARK  171  A    between atoms: _441  and  _442
REMARK  172  A    between atoms: _445  and  _447
REMARK  173  A    between atoms: _447  and  _448
REMARK  174  A    between atoms: _447  and  _450
REMARK  175  A    between atoms: _450  and  _451
REMARK  176  A    between atoms: _454  and  _456
REMARK  177  A    between atoms: _456  and  _457
REMARK  178  A    between atoms: _460  and  _462
REMARK  179  A    between atoms: _462  and  _463
REMARK  180  A    between atoms: _462  and  _465
REMARK  181  A    between atoms: _465  and  _466
REMARK  182  A    between atoms: _466  and  _467
REMARK  183  A    between atoms: _469  and  _471
REMARK  184  A    between atoms: _471  and  _472
REMARK  185  A    between atoms: _471  and  _474
REMARK  186  A    between atoms: _474  and  _475
REMARK  187  A    between atoms: _475  and  _476
REMARK  188  A    between atoms: _479  and  _481
REMARK  189  A    between atoms: _481  and  _482
REMARK  190  A    between atoms: _481  and  _484
REMARK  191  A    between atoms: _486  and  _488
REMARK  192  A    between atoms: _488  and  _489
REMARK  193  A    between atoms: _492  and  _494
REMARK  194  A    between atoms: _494  and  _495
REMARK  195  A    between atoms: _494  and  _497
REMARK  196  A    between atoms: _499  and  _501
REMARK  197  A    between atoms: _501  and  _502
REMARK  198  A    between atoms: _505  and  _507
REMARK  199  A    between atoms: _507  and  _508
REMARK  200  A    between atoms: _507  and  _510
REMARK  201  A    between atoms: _510  and  _511
REMARK  202  A    between atoms: _514  and  _516
REMARK  203  A    between atoms: _516  and  _517
REMARK  204  A    between atoms: _516  and  _519
REMARK  205  A    between atoms: _519  and  _520
REMARK  206  A    between atoms: _523  and  _525
REMARK  207  A    between atoms: _525  and  _526
REMARK  208  A    between atoms: _525  and  _528
REMARK  209  A    between atoms: _528  and  _529
REMARK  210  A    between atoms: _534  and  _535
REMARK  211  A    between atoms: _537  and  _539
REMARK  212  A    between atoms: _539  and  _540
REMARK  213  A    between atoms: _539  and  _542
REMARK  214  A    between atoms: _545  and  _547
REMARK  215  A    between atoms: _547  and  _548
REMARK  216  A    between atoms: _547  and  _550
REMARK  217  A    between atoms: _550  and  _551
REMARK  218  A    between atoms: _557  and  _559
REMARK  219  A    between atoms: _559  and  _560
REMARK  220  A    between atoms: _559  and  _562
REMARK  221  A    between atoms: _562  and  _563
REMARK  222  A    between atoms: _565  and  _567
REMARK  223  A    between atoms: _567  and  _568
REMARK  224  A    between atoms: _567  and  _570
REMARK  225  A    between atoms: _572  and  _574
REMARK  226  A    between atoms: _574  and  _575
REMARK  227  A    between atoms: _574  and  _577
REMARK  228  A    between atoms: _577  and  _578
REMARK  229  A    between atoms: _583  and  _584
REMARK                            x       y       z     vdW  Elec       q    Type
REMARK                         _______ _______ _______ _____ _____    ______ ____
ROOT
ATOM      1  O   HOH     1      22.274  41.785  16.672  0.00  0.00    +0.000 OA
ENDROOT
TORSDOF 0
REMARK  Name = ../refined-set-2016/2a14/2a14_pocket.pdb
REMARK  229 active torsions:
REMARK  status: ('A' for Active; 'I' for Inactive)
REMARK    1  A    between atoms: _1  and  _5
REMARK    2  A    between atoms: _5  and  _6
REMARK    3  A    between atoms: _5  and  _8
REMARK    4  A    between atoms: _8  and  _9
REMARK    5  A    between atoms: _15  and  _17
REMARK    6  A    between atoms: _17  and  _18
REMARK    7  A    between atoms: _17  and  _20
REMARK    8  A    between atoms: _20  and  _21
REMARK    9  A    between atoms: _24  and  _26
REMARK   10  A    between atoms: _26  and  _27
REMARK   11  A    between atoms: _29  and  _31
REMARK   12  A    between atoms: _31  and  _32
REMARK   13  A    between atoms: _34  and  _36
REMARK   14  A    between atoms: _36  and  _37
REMARK   15  A    between atoms: _36  and  _39
REMARK   16  A    between atoms: _39  and  _40
REMARK   17  A    between atoms: _45  and  _46
REMARK   18  A    between atoms: _48  and  _50
REMARK   19  A    between atoms: _50  and  _51
REMARK   20  A    between atoms: _50  and  _53
REMARK   21  A    between atoms: _53  and  _54
REMARK   22  A    between atoms: _54  and  _55
REMARK   23  A    between atoms: _60  and  _62
REMARK   24  A    between atoms: _62  and  _63
REMARK   25  A    between atoms: _62  and  _65
REMARK   26  A    between atoms: _65  and  _66
REMARK   27  A    between atoms: _73  and  _74
REMARK   28  A    between atoms: _79  and  _81
REMARK   29  A    between atoms: _81  and  _82
REMARK   30  A    between atoms: _81  and  _84
REMARK   31  A    between atoms: _84  and  _85
REMARK   32  A    between atoms: _90  and  _91
REMARK   33  A    between atoms: _93  and  _95
REMARK   34  A    between atoms: _95  and  _96
REMARK   35  A    between atoms: _95  and  _98
REMARK   36  A    between atoms: _98  and  _99
REMARK   37  A    between atoms: _102  and  _104
REMARK   38  A    between atoms: _104  and  _105
REMARK   39  A    between atoms: _104  and  _107
REMARK   40  A    between atoms: _107  and  _108
REMARK   41  A    between atoms: _113  and  _114
REMARK   42  A    between atoms: _116  and  _118
REMARK   43  A    between atoms: _118  and  _119
REMARK   44  A    between atoms: _118  and  _121
REMARK   45  A    between atoms: _121  and  _122
REMARK   46  A    between atoms: _127  and  _128
REMARK   47  A    between atoms: _130  and  _132
REMARK   48  A    between atoms: _132  and  _133
REMARK   49  A    between atoms: _132  and  _135
REMARK   50  A    between atoms: _135  and  _136
REMARK   51  A    between atoms: _139  and  _141
REMARK   52  A    between atoms: _141  and  _142
REMARK   53  A    between atoms: _141  and  _144
REMARK   54  A    between atoms: _144  and  _145
REMARK   55  A    between atoms: _150  and  _152
REMARK   56  A    between atoms: _152  and  _153
REMARK   57  A    between atoms: _152  and  _155
REMARK   58  A    between atoms: _155  and  _156
REMARK   59  A    between atoms: _159  and  _161
REMARK   60  A    between atoms: _161  and  _162
REMARK   61  A    between atoms: _161  and  _164
REMARK   62  A    between atoms: _164  and  _165
REMARK   63  A    between atoms: _168  and  _170
REMARK   64  A    between atoms: _170  and  _171
REMARK   65  A    between atoms: _170  and  _173
REMARK   66  A    between atoms: _173  and  _174
REMARK   67  A    between atoms: _177  and  _179
REMARK   68  A    between atoms: _179  and  _180
REMARK   69  A    between atoms: _182  and  _184
REMARK   70  A    between atoms: _184  and  _185
REMARK   71  A    between atoms: _184  and  _187
REMARK   72  A    between atoms: _187  and  _188
REMARK   73  A    between atoms: _190  and  _192
REMARK   74  A    between atoms: _192  and  _193
REMARK   75  A    between atoms: _196  and  _197
REMARK   76  A    between atoms: _202  and  _204
REMARK   77  A    between atoms: _204  and  _205
REMARK   78  A    between atoms: _204  and  _207
REMARK   79  A    between atoms: _207  and  _208
REMARK   80  A    between atoms: _211  and  _213
REMARK   81  A    between atoms: _213  and  _214
REMARK   82  A    between atoms: _213  and  _216
REMARK   83  A    between atoms: _216  and  _217
REMARK   84  A    between atoms: _220  and  _222
REMARK   85  A    between atoms: _222  and  _223
REMARK   86  A    between atoms: _222  and  _225
REMARK   87  A    between atoms: _225  and  _226
REMARK   88  A    between atoms: _231  and  _232
REMARK   89  A    between atoms: _234  and  _236
REMARK   90  A    between atoms: _236  and  _237
REMARK   91  A    between atoms: _236  and  _239
REMARK   92  A    between atoms: _239  and  _240
REMARK   93  A    between atoms: _240  and  _241
REMARK   94  A    between atoms: _246  and  _248
REMARK   95  A    between atoms: _248  and  _249
REMARK   96  A    between atoms: _248  and  _251
REMARK   97  A    between atoms: _251  and  _252
REMARK   98  A    between atoms: _254  and  _256
REMARK   99  A    between atoms: _256  and  _257
REMARK  100  A    between atoms: _256  and  _259
REMARK  101  A    between atoms: _259  and  _260
REMARK  102  A    between atoms: _263  and  _265
REMARK  103  A    between atoms: _265  and  _266
REMARK  104  A    between atoms: _265  and  _268
REMARK  105  A    between atoms: _268  and  _269
REMARK  106  A    between atoms: _275  and  _277
REMARK  107  A    between atoms: _277  and  _278
REMARK  108  A    between atoms: _277  and  _280
REMARK  109  A    between atoms: _280  and  _281
REMARK  110  A    between atoms: _284  and  _286
REMARK  111  A    between atoms: _286  and  _287
REMARK  112  A    between atoms: _286  and  _289
REMARK  113  A    between atoms: _289  and  _290
REMARK  114  A    between atoms: _293  and  _295
REMARK  115  A    between atoms: _295  and  _296
REMARK  116  A    between atoms: _295  and  _298
REMARK  117  A    between atoms: _298  and  _299
REMARK  118  A    between atoms: _299  and  _300
REMARK  119  A    between atoms: _300  and  _301
REMARK  120  A    between atoms: _310  and  _312
REMARK  121  A    between atoms: _312  and  _313
REMARK  122  A    between atoms: _312  and  _315
REMARK  123  A    between atoms: _315  and  _316
REMARK  124  A    between atoms: _321  and  _323
REMARK  125  A    between atoms: _323  and  _324
REMARK  126  A    between atoms: _323  and  _326
REMARK  127  A    between atoms: _326  and  _327
REMARK  128  A    between atoms: _327  and  _328
REMARK  129  A    between atoms: _328  and  _329
REMARK  130  A    between atoms: _338  and  _340
REMARK  131  A    between atoms: _340  and  _341
REMARK  132  A    between atoms: _340  and  _343
REMARK  133  A    between atoms: _343  and  _344
REMARK  134  A    between atoms: _354  and  _356
REMARK  135  A    between atoms: _356  and  _357
REMARK  136  A    between atoms: _356  and  _359
REMARK  137  A    between atoms: _359  and  _360
REMARK  138  A    between atoms: _360  and  _361
REMARK  139  A    between atoms: _361  and  _362
REMARK  140  A    between atoms: _362  and  _363
REMARK  141  A    between atoms: _367  and  _369
REMARK  142  A    between atoms: _369  and  _370
REMARK  143  A    between atoms: _369  and  _372
REMARK  144  A    between atoms: _374  and  _376
REMARK  145  A    between atoms: _376  and  _377
REMARK  146  A    between atoms: _376  and  _379
REMARK  147  A    between atoms: _379  and  _380
REMARK  148  A    between atoms: _383  and  _385
REMARK  149  A    between atoms: _385  and  _386
REMARK  150  A    between atoms: _385  and  _388
REMARK  151  A    between atoms: _391  and  _393
REMARK  152  A    between atoms: _393  and  _394
REMARK  153  A    between atoms: _393  and  _396
REMARK  154  A    between atoms: _396  and  _397
REMARK  155  A    between atoms: _402  and  _404
REMARK  156  A    between atoms: _404  and  _405
REMARK  157  A    between atoms: _404  and  _407
REMARK  158  A    between atoms: _407  and  _408
REMARK  159  A    between atoms: _412  and  _413
REMARK  160  A    between atoms: _418  and  _420
REMARK  161  A    between atoms: _420  and  _421
REMARK  162  A    between atoms: _420  and  _423
REMARK  163  A    between atoms: _423  and  _424
REMARK  164  A    between atoms: _427  and  _429
REMARK  165  A    between atoms: _429  and  _430
REMARK  166  A    between atoms: _429  and  _432
REMARK  167  A    between atoms: _432  and  _433
REMARK  168  A    between atoms: _436  and  _438
REMARK  169  A    between atoms: _438  and  _439
REMARK  170  A    between atoms: _438  and  _441
REMARK  171  A    between atoms: _441  and  _442
REMARK  172  A    between atoms: _445  and  _447
REMARK  173  A    between atoms: _447  and  _448
REMARK  174  A    between atoms: _447  and  _450
REMARK  175  A    between atoms: _450  and  _451
REMARK  176  A    between atoms: _454  and  _456
REMARK  177  A    between atoms: _456  and  _457
REMARK  178  A    between atoms: _460  and  _462
REMARK  179  A    between atoms: _462  and  _463
REMARK  180  A    between atoms: _462  and  _465
REMARK  181  A    between atoms: _465  and  _466
REMARK  182  A    between atoms: _466  and  _467
REMARK  183  A    between atoms: _469  and  _471
REMARK  184  A    between atoms: _471  and  _472
REMARK  185  A    between atoms: _471  and  _474
REMARK  186  A    between atoms: _474  and  _475
REMARK  187  A    between atoms: _475  and  _476
REMARK  188  A    between atoms: _479  and  _481
REMARK  189  A    between atoms: _481  and  _482
REMARK  190  A    between atoms: _481  and  _484
REMARK  191  A    between atoms: _486  and  _488
REMARK  192  A    between atoms: _488  and  _489
REMARK  193  A    between atoms: _492  and  _494
REMARK  194  A    between atoms: _494  and  _495
REMARK  195  A    between atoms: _494  and  _497
REMARK  196  A    between atoms: _499  and  _501
REMARK  197  A    between atoms: _501  and  _502
REMARK  198  A    between atoms: _505  and  _507
REMARK  199  A    between atoms: _507  and  _508
REMARK  200  A    between atoms: _507  and  _510
REMARK  201  A    between atoms: _510  and  _511
REMARK  202  A    between atoms: _514  and  _516
REMARK  203  A    between atoms: _516  and  _517
REMARK  204  A    between atoms: _516  and  _519
REMARK  205  A    between atoms: _519  and  _520
REMARK  206  A    between atoms: _523  and  _525
REMARK  207  A    between atoms: _525  and  _526
REMARK  208  A    between atoms: _525  and  _528
REMARK  209  A    between atoms: _528  and  _529
REMARK  210  A    between atoms: _534  and  _535
REMARK  211  A    between atoms: _537  and  _539
REMARK  212  A    between atoms: _539  and  _540
REMARK  213  A    between atoms: _539  and  _542
REMARK  214  A    between atoms: _545  and  _547
REMARK  215  A    between atoms: _547  and  _548
REMARK  216  A    between atoms: _547  and  _550
REMARK  217  A    between atoms: _550  and  _551
REMARK  218  A    between atoms: _557  and  _559
REMARK  219  A    between atoms: _559  and  _560
REMARK  220  A    between atoms: _559  and  _562
REMARK  221  A    between atoms: _562  and  _563
REMARK  222  A    between atoms: _565  and  _567
REMARK  223  A    between atoms: _567  and  _568
REMARK  224  A    between atoms: _567  and  _570
REMARK  225  A    between atoms: _572  and  _574
REMARK  226  A    between atoms: _574  and  _575
REMARK  227  A    between atoms: _574  and  _577
REMARK  228  A    between atoms: _577  and  _578
REMARK  229  A    between atoms: _583  and  _584
REMARK                            x       y       z     vdW  Elec       q    Type
REMARK                         _______ _______ _______ _____ _____    ______ ____
ROOT
ATOM      1  O   HOH     1      24.419  55.189   3.532  0.00  0.00    +0.000 OA
ENDROOT
TORSDOF 0
REMARK  Name = ../refined-set-2016/2a14/2a14_pocket.pdb
REMARK  229 active torsions:
REMARK  status: ('A' for Active; 'I' for Inactive)
REMARK    1  A    between atoms: _1  and  _5
REMARK    2  A    between atoms: _5  and  _6
REMARK    3  A    between atoms: _5  and  _8
REMARK    4  A    between atoms: _8  and  _9
REMARK    5  A    between atoms: _15  and  _17
REMARK    6  A    between atoms: _17  and  _18
REMARK    7  A    between atoms: _17  and  _20
REMARK    8  A    between atoms: _20  and  _21
REMARK    9  A    between atoms: _24  and  _26
REMARK   10  A    between atoms: _26  and  _27
REMARK   11  A    between atoms: _29  and  _31
REMARK   12  A    between atoms: _31  and  _32
REMARK   13  A    between atoms: _34  and  _36
REMARK   14  A    between atoms: _36  and  _37
REMARK   15  A    between atoms: _36  and  _39
REMARK   16  A    between atoms: _39  and  _40
REMARK   17  A    between atoms: _45  and  _46
REMARK   18  A    between atoms: _48  and  _50
REMARK   19  A    between atoms: _50  and  _51
REMARK   20  A    between atoms: _50  and  _53
REMARK   21  A    between atoms: _53  and  _54
REMARK   22  A    between atoms: _54  and  _55
REMARK   23  A    between atoms: _60  and  _62
REMARK   24  A    between atoms: _62  and  _63
REMARK   25  A    between atoms: _62  and  _65
REMARK   26  A    between atoms: _65  and  _66
REMARK   27  A    between atoms: _73  and  _74
REMARK   28  A    between atoms: _79  and  _81
REMARK   29  A    between atoms: _81  and  _82
REMARK   30  A    between atoms: _81  and  _84
REMARK   31  A    between atoms: _84  and  _85
REMARK   32  A    between atoms: _90  and  _91
REMARK   33  A    between atoms: _93  and  _95
REMARK   34  A    between atoms: _95  and  _96
REMARK   35  A    between atoms: _95  and  _98
REMARK   36  A    between atoms: _98  and  _99
REMARK   37  A    between atoms: _102  and  _104
REMARK   38  A    between atoms: _104  and  _105
REMARK   39  A    between atoms: _104  and  _107
REMARK   40  A    between atoms: _107  and  _108
REMARK   41  A    between atoms: _113  and  _114
REMARK   42  A    between atoms: _116  and  _118
REMARK   43  A    between atoms: _118  and  _119
REMARK   44  A    between atoms: _118  and  _121
REMARK   45  A    between atoms: _121  and  _122
REMARK   46  A    between atoms: _127  and  _128
REMARK   47  A    between atoms: _130  and  _132
REMARK   48  A    between atoms: _132  and  _133
REMARK   49  A    between atoms: _132  and  _135
REMARK   50  A    between atoms: _135  and  _136
REMARK   51  A    between atoms: _139  and  _141
REMARK   52  A    between atoms: _141  and  _142
REMARK   53  A    between atoms: _141  and  _144
REMARK   54  A    between atoms: _144  and  _145
REMARK   55  A    between atoms: _150  and  _152
REMARK   56  A    between atoms: _152  and  _153
REMARK   57  A    between atoms: _152  and  _155
REMARK   58  A    between atoms: _155  and  _156
REMARK   59  A    between atoms: _159  and  _161
REMARK   60  A    between atoms: _161  and  _162
REMARK   61  A    between atoms: _161  and  _164
REMARK   62  A    between atoms: _164  and  _165
REMARK   63  A    between atoms: _168  and  _170
REMARK   64  A    between atoms: _170  and  _171
REMARK   65  A    between atoms: _170  and  _173
REMARK   66  A    between atoms: _173  and  _174
REMARK   67  A    between atoms: _177  and  _179
REMARK   68  A    between atoms: _179  and  _180
REMARK   69  A    between atoms: _182  and  _184
REMARK   70  A    between atoms: _184  and  _185
REMARK   71  A    between atoms: _184  and  _187
REMARK   72  A    between atoms: _187  and  _188
REMARK   73  A    between atoms: _190  and  _192
REMARK   74  A    between atoms: _192  and  _193
REMARK   75  A    between atoms: _196  and  _197
REMARK   76  A    between atoms: _202  and  _204
REMARK   77  A    between atoms: _204  and  _205
REMARK   78  A    between atoms: _204  and  _207
REMARK   79  A    between atoms: _207  and  _208
REMARK   80  A    between atoms: _211  and  _213
REMARK   81  A    between atoms: _213  and  _214
REMARK   82  A    between atoms: _213  and  _216
REMARK   83  A    between atoms: _216  and  _217
REMARK   84  A    between atoms: _220  and  _222
REMARK   85  A    between atoms: _222  and  _223
REMARK   86  A    between atoms: _222  and  _225
REMARK   87  A    between atoms: _225  and  _226
REMARK   88  A    between atoms: _231  and  _232
REMARK   89  A    between atoms: _234  and  _236
REMARK   90  A    between atoms: _236  and  _237
REMARK   91  A    between atoms: _236  and  _239
REMARK   92  A    between atoms: _239  and  _240
REMARK   93  A    between atoms: _240  and  _241
REMARK   94  A    between atoms: _246  and  _248
REMARK   95  A    between atoms: _248  and  _249
REMARK   96  A    between atoms: _248  and  _251
REMARK   97  A    between atoms: _251  and  _252
REMARK   98  A    between atoms: _254  and  _256
REMARK   99  A    between atoms: _256  and  _257
REMARK  100  A    between atoms: _256  and  _259
REMARK  101  A    between atoms: _259  and  _260
REMARK  102  A    between atoms: _263  and  _265
REMARK  103  A    between atoms: _265  and  _266
REMARK  104  A    between atoms: _265  and  _268
REMARK  105  A    between atoms: _268  and  _269
REMARK  106  A    between atoms: _275  and  _277
REMARK  107  A    between atoms: _277  and  _278
REMARK  108  A    between atoms: _277  and  _280
REMARK  109  A    between atoms: _280  and  _281
REMARK  110  A    between atoms: _284  and  _286
REMARK  111  A    between atoms: _286  and  _287
REMARK  112  A    between atoms: _286  and  _289
REMARK  113  A    between atoms: _289  and  _290
REMARK  114  A    between atoms: _293  and  _295
REMARK  115  A    between atoms: _295  and  _296
REMARK  116  A    between atoms: _295  and  _298
REMARK  117  A    between atoms: _298  and  _299
REMARK  118  A    between atoms: _299  and  _300
REMARK  119  A    between atoms: _300  and  _301
REMARK  120  A    between atoms: _310  and  _312
REMARK  121  A    between atoms: _312  and  _313
REMARK  122  A    between atoms: _312  and  _315
REMARK  123  A    between atoms: _315  and  _316
REMARK  124  A    between atoms: _321  and  _323
REMARK  125  A    between atoms: _323  and  _324
REMARK  126  A    between atoms: _323  and  _326
REMARK  127  A    between atoms: _326  and  _327
REMARK  128  A    between atoms: _327  and  _328
REMARK  129  A    between atoms: _328  and  _329
REMARK  130  A    between atoms: _338  and  _340
REMARK  131  A    between atoms: _340  and  _341
REMARK  132  A    between atoms: _340  and  _343
REMARK  133  A    between atoms: _343  and  _344
REMARK  134  A    between atoms: _354  and  _356
REMARK  135  A    between atoms: _356  and  _357
REMARK  136  A    between atoms: _356  and  _359
REMARK  137  A    between atoms: _359  and  _360
REMARK  138  A    between atoms: _360  and  _361
REMARK  139  A    between atoms: _361  and  _362
REMARK  140  A    between atoms: _362  and  _363
REMARK  141  A    between atoms: _367  and  _369
REMARK  142  A    between atoms: _369  and  _370
REMARK  143  A    between atoms: _369  and  _372
REMARK  144  A    between atoms: _374  and  _376
REMARK  145  A    between atoms: _376  and  _377
REMARK  146  A    between atoms: _376  and  _379
REMARK  147  A    between atoms: _379  and  _380
REMARK  148  A    between atoms: _383  and  _385
REMARK  149  A    between atoms: _385  and  _386
REMARK  150  A    between atoms: _385  and  _388
REMARK  151  A    between atoms: _391  and  _393
REMARK  152  A    between atoms: _393  and  _394
REMARK  153  A    between atoms: _393  and  _396
REMARK  154  A    between atoms: _396  and  _397
REMARK  155  A    between atoms: _402  and  _404
REMARK  156  A    between atoms: _404  and  _405
REMARK  157  A    between atoms: _404  and  _407
REMARK  158  A    between atoms: _407  and  _408
REMARK  159  A    between atoms: _412  and  _413
REMARK  160  A    between atoms: _418  and  _420
REMARK  161  A    between atoms: _420  and  _421
REMARK  162  A    between atoms: _420  and  _423
REMARK  163  A    between atoms: _423  and  _424
REMARK  164  A    between atoms: _427  and  _429
REMARK  165  A    between atoms: _429  and  _430
REMARK  166  A    between atoms: _429  and  _432
REMARK  167  A    between atoms: _432  and  _433
REMARK  168  A    between atoms: _436  and  _438
REMARK  169  A    between atoms: _438  and  _439
REMARK  170  A    between atoms: _438  and  _441
REMARK  171  A    between atoms: _441  and  _442
REMARK  172  A    between atoms: _445  and  _447
REMARK  173  A    between atoms: _447  and  _448
REMARK  174  A    between atoms: _447  and  _450
REMARK  175  A    between atoms: _450  and  _451
REMARK  176  A    between atoms: _454  and  _456
REMARK  177  A    between atoms: _456  and  _457
REMARK  178  A    between atoms: _460  and  _462
REMARK  179  A    between atoms: _462  and  _463
REMARK  180  A    between atoms: _462  and  _465
REMARK  181  A    between atoms: _465  and  _466
REMARK  182  A    between atoms: _466  and  _467
REMARK  183  A    between atoms: _469  and  _471
REMARK  184  A    between atoms: _471  and  _472
REMARK  185  A    between atoms: _471  and  _474
REMARK  186  A    between atoms: _474  and  _475
REMARK  187  A    between atoms: _475  and  _476
REMARK  188  A    between atoms: _479  and  _481
REMARK  189  A    between atoms: _481  and  _482
REMARK  190  A    between atoms: _481  and  _484
REMARK  191  A    between atoms: _486  and  _488
REMARK  192  A    between atoms: _488  and  _489
REMARK  193  A    between atoms: _492  and  _494
REMARK  194  A    between atoms: _494  and  _495
REMARK  195  A    between atoms: _494  and  _497
REMARK  196  A    between atoms: _499  and  _501
REMARK  197  A    between atoms: _501  and  _502
REMARK  198  A    between atoms: _505  and  _507
REMARK  199  A    between atoms: _507  and  _508
REMARK  200  A    between atoms: _507  and  _510
REMARK  201  A    between atoms: _510  and  _511
REMARK  202  A    between atoms: _514  and  _516
REMARK  203  A    between atoms: _516  and  _517
REMARK  204  A    between atoms: _516  and  _519
REMARK  205  A    between atoms: _519  and  _520
REMARK  206  A    between atoms: _523  and  _525
REMARK  207  A    between atoms: _525  and  _526
REMARK  208  A    between atoms: _525  and  _528
REMARK  209  A    between atoms: _528  and  _529
REMARK  210  A    between atoms: _534  and  _535
REMARK  211  A    between atoms: _537  and  _539
REMARK  212  A    between atoms: _539  and  _540
REMARK  213  A    between atoms: _539  and  _542
REMARK  214  A    between atoms: _545  and  _547
REMARK  215  A    between atoms: _547  and  _548
REMARK  216  A    between atoms: _547  and  _550
REMARK  217  A    between atoms: _550  and  _551
REMARK  218  A    between atoms: _557  and  _559
REMARK  219  A    between atoms: _559  and  _560
REMARK  220  A    between atoms: _559  and  _562
REMARK  221  A    between atoms: _562  and  _563
REMARK  222  A    between atoms: _565  and  _567
REMARK  223  A    between atoms: _567  and  _568
REMARK  224  A    between atoms: _567  and  _570
REMARK  225  A    between atoms: _572  and  _574
REMARK  226  A    between atoms: _574  and  _575
REMARK  227  A    between atoms: _574  and  _577
REMARK  228  A    between atoms: _577  and  _578
REMARK  229  A    between atoms: _583  and  _584
REMARK                            x       y       z     vdW  Elec       q    Type
REMARK                         _______ _______ _______ _____ _____    ______ ____
ROOT
ATOM      1  O   HOH     1      21.680  40.300  14.435  0.00  0.00    +0.000 OA
ENDROOT
TORSDOF 0
REMARK  Name = ../refined-set-2016/2a14/2a14_pocket.pdb
REMARK  229 active torsions:
REMARK  status: ('A' for Active; 'I' for Inactive)
REMARK    1  A    between atoms: _1  and  _5
REMARK    2  A    between atoms: _5  and  _6
REMARK    3  A    between atoms: _5  and  _8
REMARK    4  A    between atoms: _8  and  _9
REMARK    5  A    between atoms: _15  and  _17
REMARK    6  A    between atoms: _17  and  _18
REMARK    7  A    between atoms: _17  and  _20
REMARK    8  A    between atoms: _20  and  _21
REMARK    9  A    between atoms: _24  and  _26
REMARK   10  A    between atoms: _26  and  _27
REMARK   11  A    between atoms: _29  and  _31
REMARK   12  A    between atoms: _31  and  _32
REMARK   13  A    between atoms: _34  and  _36
REMARK   14  A    between atoms: _36  and  _37
REMARK   15  A    between atoms: _36  and  _39
REMARK   16  A    between atoms: _39  and  _40
REMARK   17  A    between atoms: _45  and  _46
REMARK   18  A    between atoms: _48  and  _50
REMARK   19  A    between atoms: _50  and  _51
REMARK   20  A    between atoms: _50  and  _53
REMARK   21  A    between atoms: _53  and  _54
REMARK   22  A    between atoms: _54  and  _55
REMARK   23  A    between atoms: _60  and  _62
REMARK   24  A    between atoms: _62  and  _63
REMARK   25  A    between atoms: _62  and  _65
REMARK   26  A    between atoms: _65  and  _66
REMARK   27  A    between atoms: _73  and  _74
REMARK   28  A    between atoms: _79  and  _81
REMARK   29  A    between atoms: _81  and  _82
REMARK   30  A    between atoms: _81  and  _84
REMARK   31  A    between atoms: _84  and  _85
REMARK   32  A    between atoms: _90  and  _91
REMARK   33  A    between atoms: _93  and  _95
REMARK   34  A    between atoms: _95  and  _96
REMARK   35  A    between atoms: _95  and  _98
REMARK   36  A    between atoms: _98  and  _99
REMARK   37  A    between atoms: _102  and  _104
REMARK   38  A    between atoms: _104  and  _105
REMARK   39  A    between atoms: _104  and  _107
REMARK   40  A    between atoms: _107  and  _108
REMARK   41  A    between atoms: _113  and  _114
REMARK   42  A    between atoms: _116  and  _118
REMARK   43  A    between atoms: _118  and  _119
REMARK   44  A    between atoms: _118  and  _121
REMARK   45  A    between atoms: _121  and  _122
REMARK   46  A    between atoms: _127  and  _128
REMARK   47  A    between atoms: _130  and  _132
REMARK   48  A    between atoms: _132  and  _133
REMARK   49  A    between atoms: _132  and  _135
REMARK   50  A    between atoms: _135  and  _136
REMARK   51  A    between atoms: _139  and  _141
REMARK   52  A    between atoms: _141  and  _142
REMARK   53  A    between atoms: _141  and  _144
REMARK   54  A    between atoms: _144  and  _145
REMARK   55  A    between atoms: _150  and  _152
REMARK   56  A    between atoms: _152  and  _153
REMARK   57  A    between atoms: _152  and  _155
REMARK   58  A    between atoms: _155  and  _156
REMARK   59  A    between atoms: _159  and  _161
REMARK   60  A    between atoms: _161  and  _162
REMARK   61  A    between atoms: _161  and  _164
REMARK   62  A    between atoms: _164  and  _165
REMARK   63  A    between atoms: _168  and  _170
REMARK   64  A    between atoms: _170  and  _171
REMARK   65  A    between atoms: _170  and  _173
REMARK   66  A    between atoms: _173  and  _174
REMARK   67  A    between atoms: _177  and  _179
REMARK   68  A    between atoms: _179  and  _180
REMARK   69  A    between atoms: _182  and  _184
REMARK   70  A    between atoms: _184  and  _185
REMARK   71  A    between atoms: _184  and  _187
REMARK   72  A    between atoms: _187  and  _188
REMARK   73  A    between atoms: _190  and  _192
REMARK   74  A    between atoms: _192  and  _193
REMARK   75  A    between atoms: _196  and  _197
REMARK   76  A    between atoms: _202  and  _204
REMARK   77  A    between atoms: _204  and  _205
REMARK   78  A    between atoms: _204  and  _207
REMARK   79  A    between atoms: _207  and  _208
REMARK   80  A    between atoms: _211  and  _213
REMARK   81  A    between atoms: _213  and  _214
REMARK   82  A    between atoms: _213  and  _216
REMARK   83  A    between atoms: _216  and  _217
REMARK   84  A    between atoms: _220  and  _222
REMARK   85  A    between atoms: _222  and  _223
REMARK   86  A    between atoms: _222  and  _225
REMARK   87  A    between atoms: _225  and  _226
REMARK   88  A    between atoms: _231  and  _232
REMARK   89  A    between atoms: _234  and  _236
REMARK   90  A    between atoms: _236  and  _237
REMARK   91  A    between atoms: _236  and  _239
REMARK   92  A    between atoms: _239  and  _240
REMARK   93  A    between atoms: _240  and  _241
REMARK   94  A    between atoms: _246  and  _248
REMARK   95  A    between atoms: _248  and  _249
REMARK   96  A    between atoms: _248  and  _251
REMARK   97  A    between atoms: _251  and  _252
REMARK   98  A    between atoms: _254  and  _256
REMARK   99  A    between atoms: _256  and  _257
REMARK  100  A    between atoms: _256  and  _259
REMARK  101  A    between atoms: _259  and  _260
REMARK  102  A    between atoms: _263  and  _265
REMARK  103  A    between atoms: _265  and  _266
REMARK  104  A    between atoms: _265  and  _268
REMARK  105  A    between atoms: _268  and  _269
REMARK  106  A    between atoms: _275  and  _277
REMARK  107  A    between atoms: _277  and  _278
REMARK  108  A    between atoms: _277  and  _280
REMARK  109  A    between atoms: _280  and  _281
REMARK  110  A    between atoms: _284  and  _286
REMARK  111  A    between atoms: _286  and  _287
REMARK  112  A    between atoms: _286  and  _289
REMARK  113  A    between atoms: _289  and  _290
REMARK  114  A    between atoms: _293  and  _295
REMARK  115  A    between atoms: _295  and  _296
REMARK  116  A    between atoms: _295  and  _298
REMARK  117  A    between atoms: _298  and  _299
REMARK  118  A    between atoms: _299  and  _300
REMARK  119  A    between atoms: _300  and  _301
REMARK  120  A    between atoms: _310  and  _312
REMARK  121  A    between atoms: _312  and  _313
REMARK  122  A    between atoms: _312  and  _315
REMARK  123  A    between atoms: _315  and  _316
REMARK  124  A    between atoms: _321  and  _323
REMARK  125  A    between atoms: _323  and  _324
REMARK  126  A    between atoms: _323  and  _326
REMARK  127  A    between atoms: _326  and  _327
REMARK  128  A    between atoms: _327  and  _328
REMARK  129  A    between atoms: _328  and  _329
REMARK  130  A    between atoms: _338  and  _340
REMARK  131  A    between atoms: _340  and  _341
REMARK  132  A    between atoms: _340  and  _343
REMARK  133  A    between atoms: _343  and  _344
REMARK  134  A    between atoms: _354  and  _356
REMARK  135  A    between atoms: _356  and  _357
REMARK  136  A    between atoms: _356  and  _359
REMARK  137  A    between atoms: _359  and  _360
REMARK  138  A    between atoms: _360  and  _361
REMARK  139  A    between atoms: _361  and  _362
REMARK  140  A    between atoms: _362  and  _363
REMARK  141  A    between atoms: _367  and  _369
REMARK  142  A    between atoms: _369  and  _370
REMARK  143  A    between atoms: _369  and  _372
REMARK  144  A    between atoms: _374  and  _376
REMARK  145  A    between atoms: _376  and  _377
REMARK  146  A    between atoms: _376  and  _379
REMARK  147  A    between atoms: _379  and  _380
REMARK  148  A    between atoms: _383  and  _385
REMARK  149  A    between atoms: _385  and  _386
REMARK  150  A    between atoms: _385  and  _388
REMARK  151  A    between atoms: _391  and  _393
REMARK  152  A    between atoms: _393  and  _394
REMARK  153  A    between atoms: _393  and  _396
REMARK  154  A    between atoms: _396  and  _397
REMARK  155  A    between atoms: _402  and  _404
REMARK  156  A    between atoms: _404  and  _405
REMARK  157  A    between atoms: _404  and  _407
REMARK  158  A    between atoms: _407  and  _408
REMARK  159  A    between atoms: _412  and  _413
REMARK  160  A    between atoms: _418  and  _420
REMARK  161  A    between atoms: _420  and  _421
REMARK  162  A    between atoms: _420  and  _423
REMARK  163  A    between atoms: _423  and  _424
REMARK  164  A    between atoms: _427  and  _429
REMARK  165  A    between atoms: _429  and  _430
REMARK  166  A    between atoms: _429  and  _432
REMARK  167  A    between atoms: _432  and  _433
REMARK  168  A    between atoms: _436  and  _438
REMARK  169  A    between atoms: _438  and  _439
REMARK  170  A    between atoms: _438  and  _441
REMARK  171  A    between atoms: _441  and  _442
REMARK  172  A    between atoms: _445  and  _447
REMARK  173  A    between atoms: _447  and  _448
REMARK  174  A    between atoms: _447  and  _450
REMARK  175  A    between atoms: _450  and  _451
REMARK  176  A    between atoms: _454  and  _456
REMARK  177  A    between atoms: _456  and  _457
REMARK  178  A    between atoms: _460  and  _462
REMARK  179  A    between atoms: _462  and  _463
REMARK  180  A    between atoms: _462  and  _465
REMARK  181  A    between atoms: _465  and  _466
REMARK  182  A    between atoms: _466  and  _467
REMARK  183  A    between atoms: _469  and  _471
REMARK  184  A    between atoms: _471  and  _472
REMARK  185  A    between atoms: _471  and  _474
REMARK  186  A    between atoms: _474  and  _475
REMARK  187  A    between atoms: _475  and  _476
REMARK  188  A    between atoms: _479  and  _481
REMARK  189  A    between atoms: _481  and  _482
REMARK  190  A    between atoms: _481  and  _484
REMARK  191  A    between atoms: _486  and  _488
REMARK  192  A    between atoms: _488  and  _489
REMARK  193  A    between atoms: _492  and  _494
REMARK  194  A    between atoms: _494  and  _495
REMARK  195  A    between atoms: _494  and  _497
REMARK  196  A    between atoms: _499  and  _501
REMARK  197  A    between atoms: _501  and  _502
REMARK  198  A    between atoms: _505  and  _507
REMARK  199  A    between atoms: _507  and  _508
REMARK  200  A    between atoms: _507  and  _510
REMARK  201  A    between atoms: _510  and  _511
REMARK  202  A    between atoms: _514  and  _516
REMARK  203  A    between atoms: _516  and  _517
REMARK  204  A    between atoms: _516  and  _519
REMARK  205  A    between atoms: _519  and  _520
REMARK  206  A    between atoms: _523  and  _525
REMARK  207  A    between atoms: _525  and  _526
REMARK  208  A    between atoms: _525  and  _528
REMARK  209  A    between atoms: _528  and  _529
REMARK  210  A    between atoms: _534  and  _535
REMARK  211  A    between atoms: _537  and  _539
REMARK  212  A    between atoms: _539  and  _540
REMARK  213  A    between atoms: _539  and  _542
REMARK  214  A    between atoms: _545  and  _547
REMARK  215  A    between atoms: _547  and  _548
REMARK  216  A    between atoms: _547  and  _550
REMARK  217  A    between atoms: _550  and  _551
REMARK  218  A    between atoms: _557  and  _559
REMARK  219  A    between atoms: _559  and  _560
REMARK  220  A    between atoms: _559  and  _562
REMARK  221  A    between atoms: _562  and  _563
REMARK  222  A    between atoms: _565  and  _567
REMARK  223  A    between atoms: _567  and  _568
REMARK  224  A    between atoms: _567  and  _570
REMARK  225  A    between atoms: _572  and  _574
REMARK  226  A    between atoms: _574  and  _575
REMARK  227  A    between atoms: _574  and  _577
REMARK  228  A    between atoms: _577  and  _578
REMARK  229  A    between atoms: _583  and  _584
REMARK                            x       y       z     vdW  Elec       q    Type
REMARK                         _______ _______ _______ _____ _____    ______ ____
ROOT
ATOM      1  O   HOH     1      19.868  41.188  15.541  0.00  0.00    +0.000 OA
ENDROOT
TORSDOF 0
REMARK  Name = ../refined-set-2016/2a14/2a14_pocket.pdb
REMARK  229 active torsions:
REMARK  status: ('A' for Active; 'I' for Inactive)
REMARK    1  A    between atoms: _1  and  _5
REMARK    2  A    between atoms: _5  and  _6
REMARK    3  A    between atoms: _5  and  _8
REMARK    4  A    between atoms: _8  and  _9
REMARK    5  A    between atoms: _15  and  _17
REMARK    6  A    between atoms: _17  and  _18
REMARK    7  A    between atoms: _17  and  _20
REMARK    8  A    between atoms: _20  and  _21
REMARK    9  A    between atoms: _24  and  _26
REMARK   10  A    between atoms: _26  and  _27
REMARK   11  A    between atoms: _29  and  _31
REMARK   12  A    between atoms: _31  and  _32
REMARK   13  A    between atoms: _34  and  _36
REMARK   14  A    between atoms: _36  and  _37
REMARK   15  A    between atoms: _36  and  _39
REMARK   16  A    between atoms: _39  and  _40
REMARK   17  A    between atoms: _45  and  _46
REMARK   18  A    between atoms: _48  and  _50
REMARK   19  A    between atoms: _50  and  _51
REMARK   20  A    between atoms: _50  and  _53
REMARK   21  A    between atoms: _53  and  _54
REMARK   22  A    between atoms: _54  and  _55
REMARK   23  A    between atoms: _60  and  _62
REMARK   24  A    between atoms: _62  and  _63
REMARK   25  A    between atoms: _62  and  _65
REMARK   26  A    between atoms: _65  and  _66
REMARK   27  A    between atoms: _73  and  _74
REMARK   28  A    between atoms: _79  and  _81
REMARK   29  A    between atoms: _81  and  _82
REMARK   30  A    between atoms: _81  and  _84
REMARK   31  A    between atoms: _84  and  _85
REMARK   32  A    between atoms: _90  and  _91
REMARK   33  A    between atoms: _93  and  _95
REMARK   34  A    between atoms: _95  and  _96
REMARK   35  A    between atoms: _95  and  _98
REMARK   36  A    between atoms: _98  and  _99
REMARK   37  A    between atoms: _102  and  _104
REMARK   38  A    between atoms: _104  and  _105
REMARK   39  A    between atoms: _104  and  _107
REMARK   40  A    between atoms: _107  and  _108
REMARK   41  A    between atoms: _113  and  _114
REMARK   42  A    between atoms: _116  and  _118
REMARK   43  A    between atoms: _118  and  _119
REMARK   44  A    between atoms: _118  and  _121
REMARK   45  A    between atoms: _121  and  _122
REMARK   46  A    between atoms: _127  and  _128
REMARK   47  A    between atoms: _130  and  _132
REMARK   48  A    between atoms: _132  and  _133
REMARK   49  A    between atoms: _132  and  _135
REMARK   50  A    between atoms: _135  and  _136
REMARK   51  A    between atoms: _139  and  _141
REMARK   52  A    between atoms: _141  and  _142
REMARK   53  A    between atoms: _141  and  _144
REMARK   54  A    between atoms: _144  and  _145
REMARK   55  A    between atoms: _150  and  _152
REMARK   56  A    between atoms: _152  and  _153
REMARK   57  A    between atoms: _152  and  _155
REMARK   58  A    between atoms: _155  and  _156
REMARK   59  A    between atoms: _159  and  _161
REMARK   60  A    between atoms: _161  and  _162
REMARK   61  A    between atoms: _161  and  _164
REMARK   62  A    between atoms: _164  and  _165
REMARK   63  A    between atoms: _168  and  _170
REMARK   64  A    between atoms: _170  and  _171
REMARK   65  A    between atoms: _170  and  _173
REMARK   66  A    between atoms: _173  and  _174
REMARK   67  A    between atoms: _177  and  _179
REMARK   68  A    between atoms: _179  and  _180
REMARK   69  A    between atoms: _182  and  _184
REMARK   70  A    between atoms: _184  and  _185
REMARK   71  A    between atoms: _184  and  _187
REMARK   72  A    between atoms: _187  and  _188
REMARK   73  A    between atoms: _190  and  _192
REMARK   74  A    between atoms: _192  and  _193
REMARK   75  A    between atoms: _196  and  _197
REMARK   76  A    between atoms: _202  and  _204
REMARK   77  A    between atoms: _204  and  _205
REMARK   78  A    between atoms: _204  and  _207
REMARK   79  A    between atoms: _207  and  _208
REMARK   80  A    between atoms: _211  and  _213
REMARK   81  A    between atoms: _213  and  _214
REMARK   82  A    between atoms: _213  and  _216
REMARK   83  A    between atoms: _216  and  _217
REMARK   84  A    between atoms: _220  and  _222
REMARK   85  A    between atoms: _222  and  _223
REMARK   86  A    between atoms: _222  and  _225
REMARK   87  A    between atoms: _225  and  _226
REMARK   88  A    between atoms: _231  and  _232
REMARK   89  A    between atoms: _234  and  _236
REMARK   90  A    between atoms: _236  and  _237
REMARK   91  A    between atoms: _236  and  _239
REMARK   92  A    between atoms: _239  and  _240
REMARK   93  A    between atoms: _240  and  _241
REMARK   94  A    between atoms: _246  and  _248
REMARK   95  A    between atoms: _248  and  _249
REMARK   96  A    between atoms: _248  and  _251
REMARK   97  A    between atoms: _251  and  _252
REMARK   98  A    between atoms: _254  and  _256
REMARK   99  A    between atoms: _256  and  _257
REMARK  100  A    between atoms: _256  and  _259
REMARK  101  A    between atoms: _259  and  _260
REMARK  102  A    between atoms: _263  and  _265
REMARK  103  A    between atoms: _265  and  _266
REMARK  104  A    between atoms: _265  and  _268
REMARK  105  A    between atoms: _268  and  _269
REMARK  106  A    between atoms: _275  and  _277
REMARK  107  A    between atoms: _277  and  _278
REMARK  108  A    between atoms: _277  and  _280
REMARK  109  A    between atoms: _280  and  _281
REMARK  110  A    between atoms: _284  and  _286
REMARK  111  A    between atoms: _286  and  _287
REMARK  112  A    between atoms: _286  and  _289
REMARK  113  A    between atoms: _289  and  _290
REMARK  114  A    between atoms: _293  and  _295
REMARK  115  A    between atoms: _295  and  _296
REMARK  116  A    between atoms: _295  and  _298
REMARK  117  A    between atoms: _298  and  _299
REMARK  118  A    between atoms: _299  and  _300
REMARK  119  A    between atoms: _300  and  _301
REMARK  120  A    between atoms: _310  and  _312
REMARK  121  A    between atoms: _312  and  _313
REMARK  122  A    between atoms: _312  and  _315
REMARK  123  A    between atoms: _315  and  _316
REMARK  124  A    between atoms: _321  and  _323
REMARK  125  A    between atoms: _323  and  _324
REMARK  126  A    between atoms: _323  and  _326
REMARK  127  A    between atoms: _326  and  _327
REMARK  128  A    between atoms: _327  and  _328
REMARK  129  A    between atoms: _328  and  _329
REMARK  130  A    between atoms: _338  and  _340
REMARK  131  A    between atoms: _340  and  _341
REMARK  132  A    between atoms: _340  and  _343
REMARK  133  A    between atoms: _343  and  _344
REMARK  134  A    between atoms: _354  and  _356
REMARK  135  A    between atoms: _356  and  _357
REMARK  136  A    between atoms: _356  and  _359
REMARK  137  A    between atoms: _359  and  _360
REMARK  138  A    between atoms: _360  and  _361
REMARK  139  A    between atoms: _361  and  _362
REMARK  140  A    between atoms: _362  and  _363
REMARK  141  A    between atoms: _367  and  _369
REMARK  142  A    between atoms: _369  and  _370
REMARK  143  A    between atoms: _369  and  _372
REMARK  144  A    between atoms: _374  and  _376
REMARK  145  A    between atoms: _376  and  _377
REMARK  146  A    between atoms: _376  and  _379
REMARK  147  A    between atoms: _379  and  _380
REMARK  148  A    between atoms: _383  and  _385
REMARK  149  A    between atoms: _385  and  _386
REMARK  150  A    between atoms: _385  and  _388
REMARK  151  A    between atoms: _391  and  _393
REMARK  152  A    between atoms: _393  and  _394
REMARK  153  A    between atoms: _393  and  _396
REMARK  154  A    between atoms: _396  and  _397
REMARK  155  A    between atoms: _402  and  _404
REMARK  156  A    between atoms: _404  and  _405
REMARK  157  A    between atoms: _404  and  _407
REMARK  158  A    between atoms: _407  and  _408
REMARK  159  A    between atoms: _412  and  _413
REMARK  160  A    between atoms: _418  and  _420
REMARK  161  A    between atoms: _420  and  _421
REMARK  162  A    between atoms: _420  and  _423
REMARK  163  A    between atoms: _423  and  _424
REMARK  164  A    between atoms: _427  and  _429
REMARK  165  A    between atoms: _429  and  _430
REMARK  166  A    between atoms: _429  and  _432
REMARK  167  A    between atoms: _432  and  _433
REMARK  168  A    between atoms: _436  and  _438
REMARK  169  A    between atoms: _438  and  _439
REMARK  170  A    between atoms: _438  and  _441
REMARK  171  A    between atoms: _441  and  _442
REMARK  172  A    between atoms: _445  and  _447
REMARK  173  A    between atoms: _447  and  _448
REMARK  174  A    between atoms: _447  and  _450
REMARK  175  A    between atoms: _450  and  _451
REMARK  176  A    between atoms: _454  and  _456
REMARK  177  A    between atoms: _456  and  _457
REMARK  178  A    between atoms: _460  and  _462
REMARK  179  A    between atoms: _462  and  _463
REMARK  180  A    between atoms: _462  and  _465
REMARK  181  A    between atoms: _465  and  _466
REMARK  182  A    between atoms: _466  and  _467
REMARK  183  A    between atoms: _469  and  _471
REMARK  184  A    between atoms: _471  and  _472
REMARK  185  A    between atoms: _471  and  _474
REMARK  186  A    between atoms: _474  and  _475
REMARK  187  A    between atoms: _475  and  _476
REMARK  188  A    between atoms: _479  and  _481
REMARK  189  A    between atoms: _481  and  _482
REMARK  190  A    between atoms: _481  and  _484
REMARK  191  A    between atoms: _486  and  _488
REMARK  192  A    between atoms: _488  and  _489
REMARK  193  A    between atoms: _492  and  _494
REMARK  194  A    between atoms: _494  and  _495
REMARK  195  A    between atoms: _494  and  _497
REMARK  196  A    between atoms: _499  and  _501
REMARK  197  A    between atoms: _501  and  _502
REMARK  198  A    between atoms: _505  and  _507
REMARK  199  A    between atoms: _507  and  _508
REMARK  200  A    between atoms: _507  and  _510
REMARK  201  A    between atoms: _510  and  _511
REMARK  202  A    between atoms: _514  and  _516
REMARK  203  A    between atoms: _516  and  _517
REMARK  204  A    between atoms: _516  and  _519
REMARK  205  A    between atoms: _519  and  _520
REMARK  206  A    between atoms: _523  and  _525
REMARK  207  A    between atoms: _525  and  _526
REMARK  208  A    between atoms: _525  and  _528
REMARK  209  A    between atoms: _528  and  _529
REMARK  210  A    between atoms: _534  and  _535
REMARK  211  A    between atoms: _537  and  _539
REMARK  212  A    between atoms: _539  and  _540
REMARK  213  A    between atoms: _539  and  _542
REMARK  214  A    between atoms: _545  and  _547
REMARK  215  A    between atoms: _547  and  _548
REMARK  216  A    between atoms: _547  and  _550
REMARK  217  A    between atoms: _550  and  _551
REMARK  218  A    between atoms: _557  and  _559
REMARK  219  A    between atoms: _559  and  _560
REMARK  220  A    between atoms: _559  and  _562
REMARK  221  A    between atoms: _562  and  _563
REMARK  222  A    between atoms: _565  and  _567
REMARK  223  A    between atoms: _567  and  _568
REMARK  224  A    between atoms: _567  and  _570
REMARK  225  A    between atoms: _572  and  _574
REMARK  226  A    between atoms: _574  and  _575
REMARK  227  A    between atoms: _574  and  _577
REMARK  228  A    between atoms: _577  and  _578
REMARK  229  A    between atoms: _583  and  _584
REMARK                            x       y       z     vdW  Elec       q    Type
REMARK                         _______ _______ _______ _____ _____    ______ ____
ROOT
ATOM      1  O   HOH     1      22.104  58.731   4.235  0.00  0.00    +0.000 OA
ENDROOT
TORSDOF 0
