REMARK  Name = ../refined-set-2016/3b25/3b25_pocket.pdb
REMARK  208 active torsions:
REMARK  status: ('A' for Active; 'I' for Inactive)
REMARK    1  A    between atoms: _1  and  _3
REMARK    2  A    between atoms: _3  and  _4
REMARK    3  A    between atoms: _3  and  _6
REMARK    4  A    between atoms: _6  and  _7
REMARK    5  A    between atoms: _13  and  _15
REMARK    6  A    between atoms: _15  and  _16
REMARK    7  A    between atoms: _15  and  _18
REMARK    8  A    between atoms: _18  and  _19
REMARK    9  A    between atoms: _19  and  _20
REMARK   10  A    between atoms: _23  and  _25
REMARK   11  A    between atoms: _25  and  _26
REMARK   12  A    between atoms: _25  and  _28
REMARK   13  A    between atoms: _28  and  _29
REMARK   14  A    between atoms: _32  and  _34
REMARK   15  A    between atoms: _34  and  _35
REMARK   16  A    between atoms: _34  and  _37
REMARK   17  A    between atoms: _37  and  _38
REMARK   18  A    between atoms: _41  and  _43
REMARK   19  A    between atoms: _43  and  _44
REMARK   20  A    between atoms: _43  and  _46
REMARK   21  A    between atoms: _46  and  _47
REMARK   22  A    between atoms: _49  and  _51
REMARK   23  A    between atoms: _51  and  _52
REMARK   24  A    between atoms: _51  and  _54
REMARK   25  A    between atoms: _54  and  _55
REMARK   26  A    between atoms: _60  and  _62
REMARK   27  A    between atoms: _62  and  _63
REMARK   28  A    between atoms: _62  and  _65
REMARK   29  A    between atoms: _65  and  _66
REMARK   30  A    between atoms: _68  and  _70
REMARK   31  A    between atoms: _70  and  _71
REMARK   32  A    between atoms: _70  and  _73
REMARK   33  A    between atoms: _73  and  _74
REMARK   34  A    between atoms: _76  and  _78
REMARK   35  A    between atoms: _78  and  _79
REMARK   36  A    between atoms: _78  and  _81
REMARK   37  A    between atoms: _81  and  _82
REMARK   38  A    between atoms: _85  and  _87
REMARK   39  A    between atoms: _87  and  _88
REMARK   40  A    between atoms: _91  and  _93
REMARK   41  A    between atoms: _93  and  _94
REMARK   42  A    between atoms: _93  and  _96
REMARK   43  A    between atoms: _96  and  _97
REMARK   44  A    between atoms: _100  and  _102
REMARK   45  A    between atoms: _102  and  _103
REMARK   46  A    between atoms: _102  and  _105
REMARK   47  A    between atoms: _105  and  _106
REMARK   48  A    between atoms: _106  and  _107
REMARK   49  A    between atoms: _107  and  _108
REMARK   50  A    between atoms: _108  and  _109
REMARK   51  A    between atoms: _113  and  _115
REMARK   52  A    between atoms: _115  and  _116
REMARK   53  A    between atoms: _115  and  _118
REMARK   54  A    between atoms: _118  and  _119
REMARK   55  A    between atoms: _122  and  _124
REMARK   56  A    between atoms: _124  and  _125
REMARK   57  A    between atoms: _124  and  _127
REMARK   58  A    between atoms: _127  and  _128
REMARK   59  A    between atoms: _131  and  _133
REMARK   60  A    between atoms: _133  and  _134
REMARK   61  A    between atoms: _133  and  _136
REMARK   62  A    between atoms: _136  and  _137
REMARK   63  A    between atoms: _140  and  _142
REMARK   64  A    between atoms: _142  and  _143
REMARK   65  A    between atoms: _142  and  _145
REMARK   66  A    between atoms: _148  and  _150
REMARK   67  A    between atoms: _150  and  _151
REMARK   68  A    between atoms: _150  and  _153
REMARK   69  A    between atoms: _153  and  _154
REMARK   70  A    between atoms: _157  and  _159
REMARK   71  A    between atoms: _159  and  _160
REMARK   72  A    between atoms: _159  and  _162
REMARK   73  A    between atoms: _162  and  _163
REMARK   74  A    between atoms: _166  and  _168
REMARK   75  A    between atoms: _168  and  _169
REMARK   76  A    between atoms: _171  and  _173
REMARK   77  A    between atoms: _173  and  _174
REMARK   78  A    between atoms: _173  and  _176
REMARK   79  A    between atoms: _176  and  _177
REMARK   80  A    between atoms: _180  and  _182
REMARK   81  A    between atoms: _182  and  _183
REMARK   82  A    between atoms: _185  and  _187
REMARK   83  A    between atoms: _187  and  _188
REMARK   84  A    between atoms: _187  and  _190
REMARK   85  A    between atoms: _190  and  _191
REMARK   86  A    between atoms: _191  and  _192
REMARK   87  A    between atoms: _194  and  _196
REMARK   88  A    between atoms: _196  and  _197
REMARK   89  A    between atoms: _196  and  _199
REMARK   90  A    between atoms: _199  and  _200
REMARK   91  A    between atoms: _203  and  _205
REMARK   92  A    between atoms: _205  and  _206
REMARK   93  A    between atoms: _205  and  _208
REMARK   94  A    between atoms: _208  and  _209
REMARK   95  A    between atoms: _212  and  _214
REMARK   96  A    between atoms: _214  and  _215
REMARK   97  A    between atoms: _214  and  _217
REMARK   98  A    between atoms: _217  and  _218
REMARK   99  A    between atoms: _221  and  _223
REMARK  100  A    between atoms: _223  and  _224
REMARK  101  A    between atoms: _223  and  _226
REMARK  102  A    between atoms: _226  and  _227
REMARK  103  A    between atoms: _230  and  _232
REMARK  104  A    between atoms: _232  and  _233
REMARK  105  A    between atoms: _232  and  _235
REMARK  106  A    between atoms: _235  and  _236
REMARK  107  A    between atoms: _241  and  _243
REMARK  108  A    between atoms: _243  and  _244
REMARK  109  A    between atoms: _243  and  _246
REMARK  110  A    between atoms: _246  and  _247
REMARK  111  A    between atoms: _250  and  _252
REMARK  112  A    between atoms: _252  and  _253
REMARK  113  A    between atoms: _255  and  _257
REMARK  114  A    between atoms: _257  and  _258
REMARK  115  A    between atoms: _257  and  _260
REMARK  116  A    between atoms: _260  and  _261
REMARK  117  A    between atoms: _264  and  _266
REMARK  118  A    between atoms: _266  and  _267
REMARK  119  A    between atoms: _270  and  _272
REMARK  120  A    between atoms: _272  and  _273
REMARK  121  A    between atoms: _275  and  _277
REMARK  122  A    between atoms: _277  and  _278
REMARK  123  A    between atoms: _277  and  _280
REMARK  124  A    between atoms: _283  and  _285
REMARK  125  A    between atoms: _285  and  _286
REMARK  126  A    between atoms: _288  and  _290
REMARK  127  A    between atoms: _290  and  _291
REMARK  128  A    between atoms: _290  and  _293
REMARK  129  A    between atoms: _293  and  _294
REMARK  130  A    between atoms: _300  and  _302
REMARK  131  A    between atoms: _302  and  _303
REMARK  132  A    between atoms: _302  and  _305
REMARK  133  A    between atoms: _305  and  _306
REMARK  134  A    between atoms: _311  and  _312
REMARK  135  A    between atoms: _314  and  _316
REMARK  136  A    between atoms: _316  and  _317
REMARK  137  A    between atoms: _316  and  _319
REMARK  138  A    between atoms: _319  and  _320
REMARK  139  A    between atoms: _325  and  _326
REMARK  140  A    between atoms: _328  and  _330
REMARK  141  A    between atoms: _330  and  _331
REMARK  142  A    between atoms: _330  and  _333
REMARK  143  A    between atoms: _336  and  _338
REMARK  144  A    between atoms: _338  and  _339
REMARK  145  A    between atoms: _338  and  _341
REMARK  146  A    between atoms: _341  and  _342
REMARK  147  A    between atoms: _345  and  _347
REMARK  148  A    between atoms: _347  and  _348
REMARK  149  A    between atoms: _347  and  _350
REMARK  150  A    between atoms: _353  and  _355
REMARK  151  A    between atoms: _355  and  _356
REMARK  152  A    between atoms: _355  and  _358
REMARK  153  A    between atoms: _358  and  _359
REMARK  154  A    between atoms: _362  and  _364
REMARK  155  A    between atoms: _364  and  _365
REMARK  156  A    between atoms: _364  and  _367
REMARK  157  A    between atoms: _367  and  _368
REMARK  158  A    between atoms: _371  and  _373
REMARK  159  A    between atoms: _373  and  _374
REMARK  160  A    between atoms: _373  and  _376
REMARK  161  A    between atoms: _376  and  _377
REMARK  162  A    between atoms: _377  and  _378
REMARK  163  A    between atoms: _378  and  _379
REMARK  164  A    between atoms: _379  and  _380
REMARK  165  A    between atoms: _384  and  _386
REMARK  166  A    between atoms: _386  and  _387
REMARK  167  A    between atoms: _386  and  _389
REMARK  168  A    between atoms: _389  and  _390
REMARK  169  A    between atoms: _395  and  _397
REMARK  170  A    between atoms: _397  and  _398
REMARK  171  A    between atoms: _397  and  _400
REMARK  172  A    between atoms: _400  and  _401
REMARK  173  A    between atoms: _411  and  _413
REMARK  174  A    between atoms: _413  and  _414
REMARK  175  A    between atoms: _413  and  _416
REMARK  176  A    between atoms: _416  and  _417
REMARK  177  A    between atoms: _417  and  _418
REMARK  178  A    between atoms: _421  and  _423
REMARK  179  A    between atoms: _423  and  _424
REMARK  180  A    between atoms: _423  and  _426
REMARK  181  A    between atoms: _426  and  _427
REMARK  182  A    between atoms: _429  and  _431
REMARK  183  A    between atoms: _431  and  _432
REMARK  184  A    between atoms: _431  and  _434
REMARK  185  A    between atoms: _434  and  _435
REMARK  186  A    between atoms: _441  and  _443
REMARK  187  A    between atoms: _443  and  _444
REMARK  188  A    between atoms: _443  and  _446
REMARK  189  A    between atoms: _446  and  _447
REMARK  190  A    between atoms: _450  and  _452
REMARK  191  A    between atoms: _452  and  _453
REMARK  192  A    between atoms: _452  and  _455
REMARK  193  A    between atoms: _458  and  _460
REMARK  194  A    between atoms: _460  and  _461
REMARK  195  A    between atoms: _463  and  _465
REMARK  196  A    between atoms: _465  and  _466
REMARK  197  A    between atoms: _465  and  _468
REMARK  198  A    between atoms: _468  and  _469
REMARK  199  A    between atoms: _472  and  _474
REMARK  200  A    between atoms: _474  and  _475
REMARK  201  A    between atoms: _474  and  _477
REMARK  202  A    between atoms: _477  and  _478
REMARK  203  A    between atoms: _478  and  _479
REMARK  204  A    between atoms: _479  and  _480
REMARK  205  A    between atoms: _480  and  _481
REMARK  206  A    between atoms: _485  and  _487
REMARK  207  A    between atoms: _487  and  _488
REMARK  208  A    between atoms: _487  and  _490
REMARK                            x       y       z     vdW  Elec       q    Type
REMARK                         _______ _______ _______ _____ _____    ______ ____
ROOT
ATOM      1  CB  PHE A   1      51.408  17.686  25.288  0.00  0.00    +0.051 C 
ENDROOT
BRANCH   1   2
ATOM      2  CG  PHE A   1      52.781  18.243  25.529  0.00  0.00    -0.020 A 
ATOM      3  CD2 PHE A   1      52.945  19.501  26.099  0.00  0.00    -0.004 A 
ATOM      4  CE2 PHE A   1      54.230  20.017  26.339  0.00  0.00    -0.000 A 
ATOM      5  CZ  PHE A   1      55.344  19.282  25.977  0.00  0.00    -0.000 A 
ATOM      6  CE1 PHE A   1      55.199  18.036  25.402  0.00  0.00    -0.000 A 
ATOM      7  CD1 PHE A   1      53.915  17.513  25.183  0.00  0.00    -0.004 A 
ENDBRANCH   1   2
BRANCH   1   8
ATOM      8  CA  PHE A   1      50.969  17.619  23.799  0.00  0.00    +0.137 C 
BRANCH   8   9
ATOM      9  N   PHE A   1      50.623  18.952  23.319  0.00  0.00    -0.239 NA
ATOM     10  H   PHE A   1      50.646  19.769  23.963  0.00  0.00    +0.142 HD
ENDBRANCH   8   9
BRANCH   8  11
ATOM     11  C   PHE A   1      49.684  16.806  23.791  0.00  0.00    +0.224 C 
ATOM     12  O   PHE A   1      48.590  17.368  23.905  0.00  0.00    -0.287 OA
ENDBRANCH   8  11
ENDBRANCH   1   8
TORSDOF 4
REMARK  Name = ../refined-set-2016/3b25/3b25_pocket.pdb
REMARK  208 active torsions:
REMARK  status: ('A' for Active; 'I' for Inactive)
REMARK    1  A    between atoms: _1  and  _3
REMARK    2  A    between atoms: _3  and  _4
REMARK    3  A    between atoms: _3  and  _6
REMARK    4  A    between atoms: _6  and  _7
REMARK    5  A    between atoms: _13  and  _15
REMARK    6  A    between atoms: _15  and  _16
REMARK    7  A    between atoms: _15  and  _18
REMARK    8  A    between atoms: _18  and  _19
REMARK    9  A    between atoms: _19  and  _20
REMARK   10  A    between atoms: _23  and  _25
REMARK   11  A    between atoms: _25  and  _26
REMARK   12  A    between atoms: _25  and  _28
REMARK   13  A    between atoms: _28  and  _29
REMARK   14  A    between atoms: _32  and  _34
REMARK   15  A    between atoms: _34  and  _35
REMARK   16  A    between atoms: _34  and  _37
REMARK   17  A    between atoms: _37  and  _38
REMARK   18  A    between atoms: _41  and  _43
REMARK   19  A    between atoms: _43  and  _44
REMARK   20  A    between atoms: _43  and  _46
REMARK   21  A    between atoms: _46  and  _47
REMARK   22  A    between atoms: _49  and  _51
REMARK   23  A    between atoms: _51  and  _52
REMARK   24  A    between atoms: _51  and  _54
REMARK   25  A    between atoms: _54  and  _55
REMARK   26  A    between atoms: _60  and  _62
REMARK   27  A    between atoms: _62  and  _63
REMARK   28  A    between atoms: _62  and  _65
REMARK   29  A    between atoms: _65  and  _66
REMARK   30  A    between atoms: _68  and  _70
REMARK   31  A    between atoms: _70  and  _71
REMARK   32  A    between atoms: _70  and  _73
REMARK   33  A    between atoms: _73  and  _74
REMARK   34  A    between atoms: _76  and  _78
REMARK   35  A    between atoms: _78  and  _79
REMARK   36  A    between atoms: _78  and  _81
REMARK   37  A    between atoms: _81  and  _82
REMARK   38  A    between atoms: _85  and  _87
REMARK   39  A    between atoms: _87  and  _88
REMARK   40  A    between atoms: _91  and  _93
REMARK   41  A    between atoms: _93  and  _94
REMARK   42  A    between atoms: _93  and  _96
REMARK   43  A    between atoms: _96  and  _97
REMARK   44  A    between atoms: _100  and  _102
REMARK   45  A    between atoms: _102  and  _103
REMARK   46  A    between atoms: _102  and  _105
REMARK   47  A    between atoms: _105  and  _106
REMARK   48  A    between atoms: _106  and  _107
REMARK   49  A    between atoms: _107  and  _108
REMARK   50  A    between atoms: _108  and  _109
REMARK   51  A    between atoms: _113  and  _115
REMARK   52  A    between atoms: _115  and  _116
REMARK   53  A    between atoms: _115  and  _118
REMARK   54  A    between atoms: _118  and  _119
REMARK   55  A    between atoms: _122  and  _124
REMARK   56  A    between atoms: _124  and  _125
REMARK   57  A    between atoms: _124  and  _127
REMARK   58  A    between atoms: _127  and  _128
REMARK   59  A    between atoms: _131  and  _133
REMARK   60  A    between atoms: _133  and  _134
REMARK   61  A    between atoms: _133  and  _136
REMARK   62  A    between atoms: _136  and  _137
REMARK   63  A    between atoms: _140  and  _142
REMARK   64  A    between atoms: _142  and  _143
REMARK   65  A    between atoms: _142  and  _145
REMARK   66  A    between atoms: _148  and  _150
REMARK   67  A    between atoms: _150  and  _151
REMARK   68  A    between atoms: _150  and  _153
REMARK   69  A    between atoms: _153  and  _154
REMARK   70  A    between atoms: _157  and  _159
REMARK   71  A    between atoms: _159  and  _160
REMARK   72  A    between atoms: _159  and  _162
REMARK   73  A    between atoms: _162  and  _163
REMARK   74  A    between atoms: _166  and  _168
REMARK   75  A    between atoms: _168  and  _169
REMARK   76  A    between atoms: _171  and  _173
REMARK   77  A    between atoms: _173  and  _174
REMARK   78  A    between atoms: _173  and  _176
REMARK   79  A    between atoms: _176  and  _177
REMARK   80  A    between atoms: _180  and  _182
REMARK   81  A    between atoms: _182  and  _183
REMARK   82  A    between atoms: _185  and  _187
REMARK   83  A    between atoms: _187  and  _188
REMARK   84  A    between atoms: _187  and  _190
REMARK   85  A    between atoms: _190  and  _191
REMARK   86  A    between atoms: _191  and  _192
REMARK   87  A    between atoms: _194  and  _196
REMARK   88  A    between atoms: _196  and  _197
REMARK   89  A    between atoms: _196  and  _199
REMARK   90  A    between atoms: _199  and  _200
REMARK   91  A    between atoms: _203  and  _205
REMARK   92  A    between atoms: _205  and  _206
REMARK   93  A    between atoms: _205  and  _208
REMARK   94  A    between atoms: _208  and  _209
REMARK   95  A    between atoms: _212  and  _214
REMARK   96  A    between atoms: _214  and  _215
REMARK   97  A    between atoms: _214  and  _217
REMARK   98  A    between atoms: _217  and  _218
REMARK   99  A    between atoms: _221  and  _223
REMARK  100  A    between atoms: _223  and  _224
REMARK  101  A    between atoms: _223  and  _226
REMARK  102  A    between atoms: _226  and  _227
REMARK  103  A    between atoms: _230  and  _232
REMARK  104  A    between atoms: _232  and  _233
REMARK  105  A    between atoms: _232  and  _235
REMARK  106  A    between atoms: _235  and  _236
REMARK  107  A    between atoms: _241  and  _243
REMARK  108  A    between atoms: _243  and  _244
REMARK  109  A    between atoms: _243  and  _246
REMARK  110  A    between atoms: _246  and  _247
REMARK  111  A    between atoms: _250  and  _252
REMARK  112  A    between atoms: _252  and  _253
REMARK  113  A    between atoms: _255  and  _257
REMARK  114  A    between atoms: _257  and  _258
REMARK  115  A    between atoms: _257  and  _260
REMARK  116  A    between atoms: _260  and  _261
REMARK  117  A    between atoms: _264  and  _266
REMARK  118  A    between atoms: _266  and  _267
REMARK  119  A    between atoms: _270  and  _272
REMARK  120  A    between atoms: _272  and  _273
REMARK  121  A    between atoms: _275  and  _277
REMARK  122  A    between atoms: _277  and  _278
REMARK  123  A    between atoms: _277  and  _280
REMARK  124  A    between atoms: _283  and  _285
REMARK  125  A    between atoms: _285  and  _286
REMARK  126  A    between atoms: _288  and  _290
REMARK  127  A    between atoms: _290  and  _291
REMARK  128  A    between atoms: _290  and  _293
REMARK  129  A    between atoms: _293  and  _294
REMARK  130  A    between atoms: _300  and  _302
REMARK  131  A    between atoms: _302  and  _303
REMARK  132  A    between atoms: _302  and  _305
REMARK  133  A    between atoms: _305  and  _306
REMARK  134  A    between atoms: _311  and  _312
REMARK  135  A    between atoms: _314  and  _316
REMARK  136  A    between atoms: _316  and  _317
REMARK  137  A    between atoms: _316  and  _319
REMARK  138  A    between atoms: _319  and  _320
REMARK  139  A    between atoms: _325  and  _326
REMARK  140  A    between atoms: _328  and  _330
REMARK  141  A    between atoms: _330  and  _331
REMARK  142  A    between atoms: _330  and  _333
REMARK  143  A    between atoms: _336  and  _338
REMARK  144  A    between atoms: _338  and  _339
REMARK  145  A    between atoms: _338  and  _341
REMARK  146  A    between atoms: _341  and  _342
REMARK  147  A    between atoms: _345  and  _347
REMARK  148  A    between atoms: _347  and  _348
REMARK  149  A    between atoms: _347  and  _350
REMARK  150  A    between atoms: _353  and  _355
REMARK  151  A    between atoms: _355  and  _356
REMARK  152  A    between atoms: _355  and  _358
REMARK  153  A    between atoms: _358  and  _359
REMARK  154  A    between atoms: _362  and  _364
REMARK  155  A    between atoms: _364  and  _365
REMARK  156  A    between atoms: _364  and  _367
REMARK  157  A    between atoms: _367  and  _368
REMARK  158  A    between atoms: _371  and  _373
REMARK  159  A    between atoms: _373  and  _374
REMARK  160  A    between atoms: _373  and  _376
REMARK  161  A    between atoms: _376  and  _377
REMARK  162  A    between atoms: _377  and  _378
REMARK  163  A    between atoms: _378  and  _379
REMARK  164  A    between atoms: _379  and  _380
REMARK  165  A    between atoms: _384  and  _386
REMARK  166  A    between atoms: _386  and  _387
REMARK  167  A    between atoms: _386  and  _389
REMARK  168  A    between atoms: _389  and  _390
REMARK  169  A    between atoms: _395  and  _397
REMARK  170  A    between atoms: _397  and  _398
REMARK  171  A    between atoms: _397  and  _400
REMARK  172  A    between atoms: _400  and  _401
REMARK  173  A    between atoms: _411  and  _413
REMARK  174  A    between atoms: _413  and  _414
REMARK  175  A    between atoms: _413  and  _416
REMARK  176  A    between atoms: _416  and  _417
REMARK  177  A    between atoms: _417  and  _418
REMARK  178  A    between atoms: _421  and  _423
REMARK  179  A    between atoms: _423  and  _424
REMARK  180  A    between atoms: _423  and  _426
REMARK  181  A    between atoms: _426  and  _427
REMARK  182  A    between atoms: _429  and  _431
REMARK  183  A    between atoms: _431  and  _432
REMARK  184  A    between atoms: _431  and  _434
REMARK  185  A    between atoms: _434  and  _435
REMARK  186  A    between atoms: _441  and  _443
REMARK  187  A    between atoms: _443  and  _444
REMARK  188  A    between atoms: _443  and  _446
REMARK  189  A    between atoms: _446  and  _447
REMARK  190  A    between atoms: _450  and  _452
REMARK  191  A    between atoms: _452  and  _453
REMARK  192  A    between atoms: _452  and  _455
REMARK  193  A    between atoms: _458  and  _460
REMARK  194  A    between atoms: _460  and  _461
REMARK  195  A    between atoms: _463  and  _465
REMARK  196  A    between atoms: _465  and  _466
REMARK  197  A    between atoms: _465  and  _468
REMARK  198  A    between atoms: _468  and  _469
REMARK  199  A    between atoms: _472  and  _474
REMARK  200  A    between atoms: _474  and  _475
REMARK  201  A    between atoms: _474  and  _477
REMARK  202  A    between atoms: _477  and  _478
REMARK  203  A    between atoms: _478  and  _479
REMARK  204  A    between atoms: _479  and  _480
REMARK  205  A    between atoms: _480  and  _481
REMARK  206  A    between atoms: _485  and  _487
REMARK  207  A    between atoms: _487  and  _488
REMARK  208  A    between atoms: _487  and  _490
REMARK                            x       y       z     vdW  Elec       q    Type
REMARK                         _______ _______ _______ _____ _____    ______ ____
ROOT
ATOM      1  CA  ASN A   5      68.013   8.363  28.641  0.00  0.00    +0.158 C 
ENDROOT
BRANCH   1   3
ATOM      2  C   SER A   4      69.212   7.112  30.378  0.00  0.00    +0.243 C 
ATOM      3  N   ASN A   5      68.474   8.193  30.009  0.00  0.00    -0.297 N 
ATOM      4  H   ASN A   5      68.234   8.913  30.720  0.00  0.00    +0.150 HD
ATOM      5  O   SER A   4      69.526   6.218  29.580  0.00  0.00    -0.273 OA
BRANCH   2   6
ATOM      6  CA  SER A   4      69.697   7.047  31.842  0.00  0.00    +0.178 C 
BRANCH   6   8
ATOM      7  C   ILE A   3      71.249   8.938  31.679  0.00  0.00    +0.241 C 
ATOM      8  N   SER A   4      70.208   8.349  32.272  0.00  0.00    -0.295 N 
ATOM      9  H   SER A   4      69.744   8.832  33.067  0.00  0.00    +0.150 HD
ATOM     10  O   ILE A   3      71.844   8.435  30.713  0.00  0.00    -0.273 OA
BRANCH   7  11
ATOM     11  CA  ILE A   3      71.612  10.354  32.190  0.00  0.00    +0.149 C 
BRANCH  11  13
ATOM     12  C   LEU A   2      69.515  11.413  31.498  0.00  0.00    +0.241 C 
ATOM     13  N   ILE A   3      70.369  11.097  32.477  0.00  0.00    -0.297 N 
ATOM     14  H   ILE A   3      70.155  11.379  33.455  0.00  0.00    +0.150 HD
ATOM     15  O   LEU A   2      69.720  11.132  30.315  0.00  0.00    -0.273 OA
BRANCH  12  16
ATOM     16  CA  LEU A   2      68.232  12.132  31.884  0.00  0.00    +0.149 C 
BRANCH  16  18
ATOM     17  C   GLU A   1      67.129  10.400  33.181  0.00  0.00    +0.238 C 
ATOM     18  N   LEU A   2      67.667  11.634  33.135  0.00  0.00    -0.297 N 
ATOM     19  H   LEU A   2      67.680  12.230  33.987  0.00  0.00    +0.150 HD
ATOM     20  O   GLU A   1      67.050   9.684  32.187  0.00  0.00    -0.274 OA
BRANCH  17  21
ATOM     21  CA  GLU A   1      66.589   9.931  34.522  0.00  0.00    +0.145 C 
BRANCH  21  22
ATOM     22  N   GLU A   1      67.494  10.264  35.638  0.00  0.00    -0.238 NA
ATOM     23  H   GLU A   1      67.177  10.938  36.363  0.00  0.00    +0.142 HD
ENDBRANCH  21  22
BRANCH  21  24
ATOM     24  CB  GLU A   1      65.168  10.464  34.773  0.00  0.00    +0.038 C 
BRANCH  24  25
ATOM     25  CG  GLU A   1      64.515   9.899  36.033  0.00  0.00    +0.116 C 
BRANCH  25  26
ATOM     26  CD  GLU A   1      64.547   8.387  36.210  0.00  0.00    +0.365 C 
ATOM     27  OE2 GLU A   1      64.677   7.920  37.366  0.00  0.00    -0.246 OA
ATOM     28  OE1 GLU A   1      64.495   7.676  35.189  0.00  0.00    -0.246 OA
ENDBRANCH  25  26
ENDBRANCH  24  25
ENDBRANCH  21  24
ENDBRANCH  17  21
ENDBRANCH  16  18
BRANCH  16  29
ATOM     29  CB  LEU A   2      68.445  13.672  31.939  0.00  0.00    +0.029 C 
BRANCH  29  30
ATOM     30  CG  LEU A   2      67.158  14.470  32.195  0.00  0.00    +0.002 C 
ATOM     31  CD2 LEU A   2      67.484  15.962  32.361  0.00  0.00    +0.000 C 
ATOM     32  CD1 LEU A   2      66.113  14.244  31.077  0.00  0.00    +0.000 C 
ENDBRANCH  29  30
ENDBRANCH  16  29
ENDBRANCH  12  16
ENDBRANCH  11  13
BRANCH  11  33
ATOM     33  CB  ILE A   3      72.520  10.346  33.446  0.00  0.00    +0.027 C 
ATOM     34  CG2 ILE A   3      73.623   9.244  33.334  0.00  0.00    +0.002 C 
BRANCH  33  35
ATOM     35  CG1 ILE A   3      73.169  11.737  33.653  0.00  0.00    +0.002 C 
ATOM     36  CD1 ILE A   3      73.978  11.831  35.023  0.00  0.00    +0.000 C 
ENDBRANCH  33  35
ENDBRANCH  11  33
ENDBRANCH   7  11
ENDBRANCH   6   8
BRANCH   6  37
ATOM     37  CB  SER A   4      68.573   6.586  32.768  0.00  0.00    +0.166 C 
BRANCH  37  38
ATOM     38  OG  SER A   4      67.992   5.375  32.314  0.00  0.00    -0.380 OA
ATOM     39  H   SER A   4      67.618   5.510  31.407  0.00  0.00    +0.211 HD
ENDBRANCH  37  38
ENDBRANCH   6  37
ENDBRANCH   2   6
ENDBRANCH   1   3
BRANCH   1  40
ATOM     40  C   ASN A   5      69.207   8.481  27.686  0.00  0.00    +0.241 C 
ATOM     41  N   SER A   6      70.246   9.220  28.106  0.00  0.00    -0.295 N 
ATOM     42  H   SER A   6      70.180   9.680  29.037  0.00  0.00    +0.150 HD
ATOM     43  O   ASN A   5      69.182   7.897  26.602  0.00  0.00    -0.273 OA
BRANCH  41  44
ATOM     44  CA  SER A   6      71.469   9.413  27.322  0.00  0.00    +0.178 C 
BRANCH  44  45
ATOM     45  C   SER A   6      72.167   8.051  27.105  0.00  0.00    +0.243 C 
ATOM     46  N   SER A   7      72.316   7.276  28.178  0.00  0.00    -0.295 N 
ATOM     47  H   SER A   7      71.984   7.639  29.094  0.00  0.00    +0.150 HD
ATOM     48  O   SER A   6      72.542   7.729  25.980  0.00  0.00    -0.273 OA
BRANCH  46  49
ATOM     49  CA  SER A   7      72.927   5.927  28.143  0.00  0.00    +0.178 C 
BRANCH  49  50
ATOM     50  C   SER A   7      72.158   5.007  27.167  0.00  0.00    +0.243 C 
ATOM     51  N   ASP A   8      70.814   5.024  27.228  0.00  0.00    -0.296 N 
ATOM     52  H   ASP A   8      70.349   5.605  27.954  0.00  0.00    +0.150 HD
ATOM     53  O   SER A   7      72.780   4.330  26.331  0.00  0.00    -0.273 OA
BRANCH  51  54
ATOM     54  CA  ASP A   8      69.973   4.236  26.287  0.00  0.00    +0.160 C 
BRANCH  54  55
ATOM     55  C   ASP A   8      70.245   4.653  24.820  0.00  0.00    +0.241 C 
ATOM     56  N   ALA A   9      70.342   5.984  24.546  0.00  0.00    -0.297 N 
ATOM     57  H   ALA A   9      70.242   6.661  25.329  0.00  0.00    +0.150 HD
ATOM     58  O   ASP A   8      70.366   3.795  23.943  0.00  0.00    -0.273 OA
BRANCH  56  59
ATOM     59  CA  ALA A   9      70.581   6.504  23.195  0.00  0.00    +0.149 C 
ATOM     60  CB  ALA A   9      70.420   8.031  23.189  0.00  0.00    +0.031 C 
BRANCH  59  61
ATOM     61  C   ALA A   9      71.976   6.126  22.717  0.00  0.00    +0.241 C 
ATOM     62  N   LEU A  10      72.950   6.099  23.642  0.00  0.00    -0.298 N 
ATOM     63  H   LEU A  10      72.718   6.344  24.626  0.00  0.00    +0.150 HD
ATOM     64  O   ALA A   9      72.189   5.935  21.522  0.00  0.00    -0.273 OA
BRANCH  62  65
ATOM     65  CA  LEU A  10      74.323   5.737  23.309  0.00  0.00    +0.137 C 
BRANCH  65  66
ATOM     66  C   LEU A  10      74.379   4.216  23.041  0.00  0.00    +0.227 C 
ATOM     67  O   LEU A  10      75.027   3.774  22.079  0.00  0.00    -0.286 OA
ENDBRANCH  65  66
BRANCH  65  68
ATOM     68  CB  LEU A  10      75.246   6.134  24.460  0.00  0.00    +0.028 C 
BRANCH  68  69
ATOM     69  CG  LEU A  10      75.563   7.641  24.499  0.00  0.00    +0.002 C 
ATOM     70  CD2 LEU A  10      76.007   8.022  25.891  0.00  0.00    +0.000 C 
ATOM     71  CD1 LEU A  10      76.618   8.023  23.457  0.00  0.00    +0.000 C 
ENDBRANCH  68  69
ENDBRANCH  65  68
ENDBRANCH  62  65
ENDBRANCH  59  61
ENDBRANCH  56  59
ENDBRANCH  54  55
BRANCH  54  72
ATOM     72  CB  ASP A   8      68.468   4.403  26.607  0.00  0.00    +0.143 C 
BRANCH  72  73
ATOM     73  CG  ASP A   8      67.984   3.814  27.920  0.00  0.00    +0.367 C 
ATOM     74  OD2 ASP A   8      68.764   3.069  28.574  0.00  0.00    -0.246 OA
ATOM     75  OD1 ASP A   8      66.851   4.139  28.329  0.00  0.00    -0.246 OA
ENDBRANCH  72  73
ENDBRANCH  54  72
ENDBRANCH  51  54
ENDBRANCH  49  50
BRANCH  49  76
ATOM     76  CB  SER A   7      72.956   5.341  29.549  0.00  0.00    +0.166 C 
BRANCH  76  77
ATOM     77  OG  SER A   7      73.506   4.034  29.534  0.00  0.00    -0.380 OA
ATOM     78  H   SER A   7      72.954   3.451  28.955  0.00  0.00    +0.211 HD
ENDBRANCH  76  77
ENDBRANCH  49  76
ENDBRANCH  46  49
ENDBRANCH  44  45
BRANCH  44  79
ATOM     79  CB  SER A   6      72.392  10.385  28.041  0.00  0.00    +0.166 C 
BRANCH  79  80
ATOM     80  OG  SER A   6      71.853  11.689  27.850  0.00  0.00    -0.380 OA
ATOM     81  H   SER A   6      71.817  11.891  26.882  0.00  0.00    +0.211 HD
ENDBRANCH  79  80
ENDBRANCH  44  79
ENDBRANCH  41  44
ENDBRANCH   1  40
BRANCH   1  82
ATOM     82  CB  ASN A   5      67.111   9.606  28.531  0.00  0.00    +0.114 C 
BRANCH  82  83
ATOM     83  CG  ASN A   5      65.767   9.457  29.209  0.00  0.00    +0.222 C 
ATOM     84  OD1 ASN A   5      65.354   8.367  29.635  0.00  0.00    -0.275 OA
ATOM     85  ND2 ASN A   5      65.044  10.558  29.330  0.00  0.00    -0.329 N 
ATOM     86 HD21 ASN A   5      64.111  10.520  29.789  0.00  0.00    +0.145 HD
ATOM     87 HD22 ASN A   5      65.408  11.462  28.966  0.00  0.00    +0.145 HD
ENDBRANCH  82  83
ENDBRANCH   1  82
TORSDOF 39
REMARK  Name = ../refined-set-2016/3b25/3b25_pocket.pdb
REMARK  208 active torsions:
REMARK  status: ('A' for Active; 'I' for Inactive)
REMARK    1  A    between atoms: _1  and  _3
REMARK    2  A    between atoms: _3  and  _4
REMARK    3  A    between atoms: _3  and  _6
REMARK    4  A    between atoms: _6  and  _7
REMARK    5  A    between atoms: _13  and  _15
REMARK    6  A    between atoms: _15  and  _16
REMARK    7  A    between atoms: _15  and  _18
REMARK    8  A    between atoms: _18  and  _19
REMARK    9  A    between atoms: _19  and  _20
REMARK   10  A    between atoms: _23  and  _25
REMARK   11  A    between atoms: _25  and  _26
REMARK   12  A    between atoms: _25  and  _28
REMARK   13  A    between atoms: _28  and  _29
REMARK   14  A    between atoms: _32  and  _34
REMARK   15  A    between atoms: _34  and  _35
REMARK   16  A    between atoms: _34  and  _37
REMARK   17  A    between atoms: _37  and  _38
REMARK   18  A    between atoms: _41  and  _43
REMARK   19  A    between atoms: _43  and  _44
REMARK   20  A    between atoms: _43  and  _46
REMARK   21  A    between atoms: _46  and  _47
REMARK   22  A    between atoms: _49  and  _51
REMARK   23  A    between atoms: _51  and  _52
REMARK   24  A    between atoms: _51  and  _54
REMARK   25  A    between atoms: _54  and  _55
REMARK   26  A    between atoms: _60  and  _62
REMARK   27  A    between atoms: _62  and  _63
REMARK   28  A    between atoms: _62  and  _65
REMARK   29  A    between atoms: _65  and  _66
REMARK   30  A    between atoms: _68  and  _70
REMARK   31  A    between atoms: _70  and  _71
REMARK   32  A    between atoms: _70  and  _73
REMARK   33  A    between atoms: _73  and  _74
REMARK   34  A    between atoms: _76  and  _78
REMARK   35  A    between atoms: _78  and  _79
REMARK   36  A    between atoms: _78  and  _81
REMARK   37  A    between atoms: _81  and  _82
REMARK   38  A    between atoms: _85  and  _87
REMARK   39  A    between atoms: _87  and  _88
REMARK   40  A    between atoms: _91  and  _93
REMARK   41  A    between atoms: _93  and  _94
REMARK   42  A    between atoms: _93  and  _96
REMARK   43  A    between atoms: _96  and  _97
REMARK   44  A    between atoms: _100  and  _102
REMARK   45  A    between atoms: _102  and  _103
REMARK   46  A    between atoms: _102  and  _105
REMARK   47  A    between atoms: _105  and  _106
REMARK   48  A    between atoms: _106  and  _107
REMARK   49  A    between atoms: _107  and  _108
REMARK   50  A    between atoms: _108  and  _109
REMARK   51  A    between atoms: _113  and  _115
REMARK   52  A    between atoms: _115  and  _116
REMARK   53  A    between atoms: _115  and  _118
REMARK   54  A    between atoms: _118  and  _119
REMARK   55  A    between atoms: _122  and  _124
REMARK   56  A    between atoms: _124  and  _125
REMARK   57  A    between atoms: _124  and  _127
REMARK   58  A    between atoms: _127  and  _128
REMARK   59  A    between atoms: _131  and  _133
REMARK   60  A    between atoms: _133  and  _134
REMARK   61  A    between atoms: _133  and  _136
REMARK   62  A    between atoms: _136  and  _137
REMARK   63  A    between atoms: _140  and  _142
REMARK   64  A    between atoms: _142  and  _143
REMARK   65  A    between atoms: _142  and  _145
REMARK   66  A    between atoms: _148  and  _150
REMARK   67  A    between atoms: _150  and  _151
REMARK   68  A    between atoms: _150  and  _153
REMARK   69  A    between atoms: _153  and  _154
REMARK   70  A    between atoms: _157  and  _159
REMARK   71  A    between atoms: _159  and  _160
REMARK   72  A    between atoms: _159  and  _162
REMARK   73  A    between atoms: _162  and  _163
REMARK   74  A    between atoms: _166  and  _168
REMARK   75  A    between atoms: _168  and  _169
REMARK   76  A    between atoms: _171  and  _173
REMARK   77  A    between atoms: _173  and  _174
REMARK   78  A    between atoms: _173  and  _176
REMARK   79  A    between atoms: _176  and  _177
REMARK   80  A    between atoms: _180  and  _182
REMARK   81  A    between atoms: _182  and  _183
REMARK   82  A    between atoms: _185  and  _187
REMARK   83  A    between atoms: _187  and  _188
REMARK   84  A    between atoms: _187  and  _190
REMARK   85  A    between atoms: _190  and  _191
REMARK   86  A    between atoms: _191  and  _192
REMARK   87  A    between atoms: _194  and  _196
REMARK   88  A    between atoms: _196  and  _197
REMARK   89  A    between atoms: _196  and  _199
REMARK   90  A    between atoms: _199  and  _200
REMARK   91  A    between atoms: _203  and  _205
REMARK   92  A    between atoms: _205  and  _206
REMARK   93  A    between atoms: _205  and  _208
REMARK   94  A    between atoms: _208  and  _209
REMARK   95  A    between atoms: _212  and  _214
REMARK   96  A    between atoms: _214  and  _215
REMARK   97  A    between atoms: _214  and  _217
REMARK   98  A    between atoms: _217  and  _218
REMARK   99  A    between atoms: _221  and  _223
REMARK  100  A    between atoms: _223  and  _224
REMARK  101  A    between atoms: _223  and  _226
REMARK  102  A    between atoms: _226  and  _227
REMARK  103  A    between atoms: _230  and  _232
REMARK  104  A    between atoms: _232  and  _233
REMARK  105  A    between atoms: _232  and  _235
REMARK  106  A    between atoms: _235  and  _236
REMARK  107  A    between atoms: _241  and  _243
REMARK  108  A    between atoms: _243  and  _244
REMARK  109  A    between atoms: _243  and  _246
REMARK  110  A    between atoms: _246  and  _247
REMARK  111  A    between atoms: _250  and  _252
REMARK  112  A    between atoms: _252  and  _253
REMARK  113  A    between atoms: _255  and  _257
REMARK  114  A    between atoms: _257  and  _258
REMARK  115  A    between atoms: _257  and  _260
REMARK  116  A    between atoms: _260  and  _261
REMARK  117  A    between atoms: _264  and  _266
REMARK  118  A    between atoms: _266  and  _267
REMARK  119  A    between atoms: _270  and  _272
REMARK  120  A    between atoms: _272  and  _273
REMARK  121  A    between atoms: _275  and  _277
REMARK  122  A    between atoms: _277  and  _278
REMARK  123  A    between atoms: _277  and  _280
REMARK  124  A    between atoms: _283  and  _285
REMARK  125  A    between atoms: _285  and  _286
REMARK  126  A    between atoms: _288  and  _290
REMARK  127  A    between atoms: _290  and  _291
REMARK  128  A    between atoms: _290  and  _293
REMARK  129  A    between atoms: _293  and  _294
REMARK  130  A    between atoms: _300  and  _302
REMARK  131  A    between atoms: _302  and  _303
REMARK  132  A    between atoms: _302  and  _305
REMARK  133  A    between atoms: _305  and  _306
REMARK  134  A    between atoms: _311  and  _312
REMARK  135  A    between atoms: _314  and  _316
REMARK  136  A    between atoms: _316  and  _317
REMARK  137  A    between atoms: _316  and  _319
REMARK  138  A    between atoms: _319  and  _320
REMARK  139  A    between atoms: _325  and  _326
REMARK  140  A    between atoms: _328  and  _330
REMARK  141  A    between atoms: _330  and  _331
REMARK  142  A    between atoms: _330  and  _333
REMARK  143  A    between atoms: _336  and  _338
REMARK  144  A    between atoms: _338  and  _339
REMARK  145  A    between atoms: _338  and  _341
REMARK  146  A    between atoms: _341  and  _342
REMARK  147  A    between atoms: _345  and  _347
REMARK  148  A    between atoms: _347  and  _348
REMARK  149  A    between atoms: _347  and  _350
REMARK  150  A    between atoms: _353  and  _355
REMARK  151  A    between atoms: _355  and  _356
REMARK  152  A    between atoms: _355  and  _358
REMARK  153  A    between atoms: _358  and  _359
REMARK  154  A    between atoms: _362  and  _364
REMARK  155  A    between atoms: _364  and  _365
REMARK  156  A    between atoms: _364  and  _367
REMARK  157  A    between atoms: _367  and  _368
REMARK  158  A    between atoms: _371  and  _373
REMARK  159  A    between atoms: _373  and  _374
REMARK  160  A    between atoms: _373  and  _376
REMARK  161  A    between atoms: _376  and  _377
REMARK  162  A    between atoms: _377  and  _378
REMARK  163  A    between atoms: _378  and  _379
REMARK  164  A    between atoms: _379  and  _380
REMARK  165  A    between atoms: _384  and  _386
REMARK  166  A    between atoms: _386  and  _387
REMARK  167  A    between atoms: _386  and  _389
REMARK  168  A    between atoms: _389  and  _390
REMARK  169  A    between atoms: _395  and  _397
REMARK  170  A    between atoms: _397  and  _398
REMARK  171  A    between atoms: _397  and  _400
REMARK  172  A    between atoms: _400  and  _401
REMARK  173  A    between atoms: _411  and  _413
REMARK  174  A    between atoms: _413  and  _414
REMARK  175  A    between atoms: _413  and  _416
REMARK  176  A    between atoms: _416  and  _417
REMARK  177  A    between atoms: _417  and  _418
REMARK  178  A    between atoms: _421  and  _423
REMARK  179  A    between atoms: _423  and  _424
REMARK  180  A    between atoms: _423  and  _426
REMARK  181  A    between atoms: _426  and  _427
REMARK  182  A    between atoms: _429  and  _431
REMARK  183  A    between atoms: _431  and  _432
REMARK  184  A    between atoms: _431  and  _434
REMARK  185  A    between atoms: _434  and  _435
REMARK  186  A    between atoms: _441  and  _443
REMARK  187  A    between atoms: _443  and  _444
REMARK  188  A    between atoms: _443  and  _446
REMARK  189  A    between atoms: _446  and  _447
REMARK  190  A    between atoms: _450  and  _452
REMARK  191  A    between atoms: _452  and  _453
REMARK  192  A    between atoms: _452  and  _455
REMARK  193  A    between atoms: _458  and  _460
REMARK  194  A    between atoms: _460  and  _461
REMARK  195  A    between atoms: _463  and  _465
REMARK  196  A    between atoms: _465  and  _466
REMARK  197  A    between atoms: _465  and  _468
REMARK  198  A    between atoms: _468  and  _469
REMARK  199  A    between atoms: _472  and  _474
REMARK  200  A    between atoms: _474  and  _475
REMARK  201  A    between atoms: _474  and  _477
REMARK  202  A    between atoms: _477  and  _478
REMARK  203  A    between atoms: _478  and  _479
REMARK  204  A    between atoms: _479  and  _480
REMARK  205  A    between atoms: _480  and  _481
REMARK  206  A    between atoms: _485  and  _487
REMARK  207  A    between atoms: _487  and  _488
REMARK  208  A    between atoms: _487  and  _490
REMARK                            x       y       z     vdW  Elec       q    Type
REMARK                         _______ _______ _______ _____ _____    ______ ____
ROOT
ATOM      1  CA  LYS A   1      71.317   2.312  20.476  0.00  0.00    +0.145 C 
ENDROOT
BRANCH   1   2
ATOM      2  C   LYS A   1      72.263   2.570  19.303  0.00  0.00    +0.238 C 
ATOM      3  N   ILE A   2      72.986   3.709  19.314  0.00  0.00    -0.298 N 
ATOM      4  H   ILE A   2      72.868   4.390  20.091  0.00  0.00    +0.150 HD
ATOM      5  O   LYS A   1      72.353   1.727  18.398  0.00  0.00    -0.274 OA
BRANCH   3   6
ATOM      6  CA  ILE A   2      73.938   3.992  18.235  0.00  0.00    +0.137 C 
BRANCH   6   7
ATOM      7  C   ILE A   2      75.096   2.953  18.223  0.00  0.00    +0.227 C 
ATOM      8  O   ILE A   2      75.490   2.494  17.139  0.00  0.00    -0.286 OA
ENDBRANCH   6   7
BRANCH   6   9
ATOM      9  CB  ILE A   2      74.416   5.487  18.200  0.00  0.00    +0.026 C 
ATOM     10  CG2 ILE A   2      75.197   5.870  19.469  0.00  0.00    +0.002 C 
BRANCH   9  11
ATOM     11  CG1 ILE A   2      75.242   5.800  16.925  0.00  0.00    +0.002 C 
ATOM     12  CD1 ILE A   2      74.459   5.726  15.573  0.00  0.00    +0.000 C 
ENDBRANCH   9  11
ENDBRANCH   6   9
ENDBRANCH   3   6
ENDBRANCH   1   2
BRANCH   1  13
ATOM     13  N   LYS A   1      71.965   2.452  21.786  0.00  0.00    -0.238 NA
ATOM     14  H   LYS A   1      71.597   3.171  22.442  0.00  0.00    +0.142 HD
ENDBRANCH   1  13
BRANCH   1  15
ATOM     15  CB  LYS A   1      70.049   3.174  20.402  0.00  0.00    +0.026 C 
BRANCH  15  16
ATOM     16  CG  LYS A   1      69.170   2.849  19.207  0.00  0.00    -0.000 C 
BRANCH  16  17
ATOM     17  CD  LYS A   1      67.718   3.202  19.445  0.00  0.00    -0.024 C 
BRANCH  17  18
ATOM     18  CE  LYS A   1      66.889   2.714  18.278  0.00  0.00    -0.086 C 
BRANCH  18  19
ATOM     19  NZ  LYS A   1      65.483   3.187  18.356  0.00  0.00    +0.380 N 
ATOM     20  HZ1 LYS A   1      65.048   2.835  19.233  0.00  0.00    -0.089 HD
ATOM     21  HZ2 LYS A   1      65.468   4.227  18.353  0.00  0.00    -0.089 HD
ATOM     22  HZ3 LYS A   1      64.952   2.829  17.537  0.00  0.00    -0.089 HD
ENDBRANCH  18  19
ENDBRANCH  17  18
ENDBRANCH  16  17
ENDBRANCH  15  16
ENDBRANCH   1  15
TORSDOF 11
REMARK  Name = ../refined-set-2016/3b25/3b25_pocket.pdb
REMARK  208 active torsions:
REMARK  status: ('A' for Active; 'I' for Inactive)
REMARK    1  A    between atoms: _1  and  _3
REMARK    2  A    between atoms: _3  and  _4
REMARK    3  A    between atoms: _3  and  _6
REMARK    4  A    between atoms: _6  and  _7
REMARK    5  A    between atoms: _13  and  _15
REMARK    6  A    between atoms: _15  and  _16
REMARK    7  A    between atoms: _15  and  _18
REMARK    8  A    between atoms: _18  and  _19
REMARK    9  A    between atoms: _19  and  _20
REMARK   10  A    between atoms: _23  and  _25
REMARK   11  A    between atoms: _25  and  _26
REMARK   12  A    between atoms: _25  and  _28
REMARK   13  A    between atoms: _28  and  _29
REMARK   14  A    between atoms: _32  and  _34
REMARK   15  A    between atoms: _34  and  _35
REMARK   16  A    between atoms: _34  and  _37
REMARK   17  A    between atoms: _37  and  _38
REMARK   18  A    between atoms: _41  and  _43
REMARK   19  A    between atoms: _43  and  _44
REMARK   20  A    between atoms: _43  and  _46
REMARK   21  A    between atoms: _46  and  _47
REMARK   22  A    between atoms: _49  and  _51
REMARK   23  A    between atoms: _51  and  _52
REMARK   24  A    between atoms: _51  and  _54
REMARK   25  A    between atoms: _54  and  _55
REMARK   26  A    between atoms: _60  and  _62
REMARK   27  A    between atoms: _62  and  _63
REMARK   28  A    between atoms: _62  and  _65
REMARK   29  A    between atoms: _65  and  _66
REMARK   30  A    between atoms: _68  and  _70
REMARK   31  A    between atoms: _70  and  _71
REMARK   32  A    between atoms: _70  and  _73
REMARK   33  A    between atoms: _73  and  _74
REMARK   34  A    between atoms: _76  and  _78
REMARK   35  A    between atoms: _78  and  _79
REMARK   36  A    between atoms: _78  and  _81
REMARK   37  A    between atoms: _81  and  _82
REMARK   38  A    between atoms: _85  and  _87
REMARK   39  A    between atoms: _87  and  _88
REMARK   40  A    between atoms: _91  and  _93
REMARK   41  A    between atoms: _93  and  _94
REMARK   42  A    between atoms: _93  and  _96
REMARK   43  A    between atoms: _96  and  _97
REMARK   44  A    between atoms: _100  and  _102
REMARK   45  A    between atoms: _102  and  _103
REMARK   46  A    between atoms: _102  and  _105
REMARK   47  A    between atoms: _105  and  _106
REMARK   48  A    between atoms: _106  and  _107
REMARK   49  A    between atoms: _107  and  _108
REMARK   50  A    between atoms: _108  and  _109
REMARK   51  A    between atoms: _113  and  _115
REMARK   52  A    between atoms: _115  and  _116
REMARK   53  A    between atoms: _115  and  _118
REMARK   54  A    between atoms: _118  and  _119
REMARK   55  A    between atoms: _122  and  _124
REMARK   56  A    between atoms: _124  and  _125
REMARK   57  A    between atoms: _124  and  _127
REMARK   58  A    between atoms: _127  and  _128
REMARK   59  A    between atoms: _131  and  _133
REMARK   60  A    between atoms: _133  and  _134
REMARK   61  A    between atoms: _133  and  _136
REMARK   62  A    between atoms: _136  and  _137
REMARK   63  A    between atoms: _140  and  _142
REMARK   64  A    between atoms: _142  and  _143
REMARK   65  A    between atoms: _142  and  _145
REMARK   66  A    between atoms: _148  and  _150
REMARK   67  A    between atoms: _150  and  _151
REMARK   68  A    between atoms: _150  and  _153
REMARK   69  A    between atoms: _153  and  _154
REMARK   70  A    between atoms: _157  and  _159
REMARK   71  A    between atoms: _159  and  _160
REMARK   72  A    between atoms: _159  and  _162
REMARK   73  A    between atoms: _162  and  _163
REMARK   74  A    between atoms: _166  and  _168
REMARK   75  A    between atoms: _168  and  _169
REMARK   76  A    between atoms: _171  and  _173
REMARK   77  A    between atoms: _173  and  _174
REMARK   78  A    between atoms: _173  and  _176
REMARK   79  A    between atoms: _176  and  _177
REMARK   80  A    between atoms: _180  and  _182
REMARK   81  A    between atoms: _182  and  _183
REMARK   82  A    between atoms: _185  and  _187
REMARK   83  A    between atoms: _187  and  _188
REMARK   84  A    between atoms: _187  and  _190
REMARK   85  A    between atoms: _190  and  _191
REMARK   86  A    between atoms: _191  and  _192
REMARK   87  A    between atoms: _194  and  _196
REMARK   88  A    between atoms: _196  and  _197
REMARK   89  A    between atoms: _196  and  _199
REMARK   90  A    between atoms: _199  and  _200
REMARK   91  A    between atoms: _203  and  _205
REMARK   92  A    between atoms: _205  and  _206
REMARK   93  A    between atoms: _205  and  _208
REMARK   94  A    between atoms: _208  and  _209
REMARK   95  A    between atoms: _212  and  _214
REMARK   96  A    between atoms: _214  and  _215
REMARK   97  A    between atoms: _214  and  _217
REMARK   98  A    between atoms: _217  and  _218
REMARK   99  A    between atoms: _221  and  _223
REMARK  100  A    between atoms: _223  and  _224
REMARK  101  A    between atoms: _223  and  _226
REMARK  102  A    between atoms: _226  and  _227
REMARK  103  A    between atoms: _230  and  _232
REMARK  104  A    between atoms: _232  and  _233
REMARK  105  A    between atoms: _232  and  _235
REMARK  106  A    between atoms: _235  and  _236
REMARK  107  A    between atoms: _241  and  _243
REMARK  108  A    between atoms: _243  and  _244
REMARK  109  A    between atoms: _243  and  _246
REMARK  110  A    between atoms: _246  and  _247
REMARK  111  A    between atoms: _250  and  _252
REMARK  112  A    between atoms: _252  and  _253
REMARK  113  A    between atoms: _255  and  _257
REMARK  114  A    between atoms: _257  and  _258
REMARK  115  A    between atoms: _257  and  _260
REMARK  116  A    between atoms: _260  and  _261
REMARK  117  A    between atoms: _264  and  _266
REMARK  118  A    between atoms: _266  and  _267
REMARK  119  A    between atoms: _270  and  _272
REMARK  120  A    between atoms: _272  and  _273
REMARK  121  A    between atoms: _275  and  _277
REMARK  122  A    between atoms: _277  and  _278
REMARK  123  A    between atoms: _277  and  _280
REMARK  124  A    between atoms: _283  and  _285
REMARK  125  A    between atoms: _285  and  _286
REMARK  126  A    between atoms: _288  and  _290
REMARK  127  A    between atoms: _290  and  _291
REMARK  128  A    between atoms: _290  and  _293
REMARK  129  A    between atoms: _293  and  _294
REMARK  130  A    between atoms: _300  and  _302
REMARK  131  A    between atoms: _302  and  _303
REMARK  132  A    between atoms: _302  and  _305
REMARK  133  A    between atoms: _305  and  _306
REMARK  134  A    between atoms: _311  and  _312
REMARK  135  A    between atoms: _314  and  _316
REMARK  136  A    between atoms: _316  and  _317
REMARK  137  A    between atoms: _316  and  _319
REMARK  138  A    between atoms: _319  and  _320
REMARK  139  A    between atoms: _325  and  _326
REMARK  140  A    between atoms: _328  and  _330
REMARK  141  A    between atoms: _330  and  _331
REMARK  142  A    between atoms: _330  and  _333
REMARK  143  A    between atoms: _336  and  _338
REMARK  144  A    between atoms: _338  and  _339
REMARK  145  A    between atoms: _338  and  _341
REMARK  146  A    between atoms: _341  and  _342
REMARK  147  A    between atoms: _345  and  _347
REMARK  148  A    between atoms: _347  and  _348
REMARK  149  A    between atoms: _347  and  _350
REMARK  150  A    between atoms: _353  and  _355
REMARK  151  A    between atoms: _355  and  _356
REMARK  152  A    between atoms: _355  and  _358
REMARK  153  A    between atoms: _358  and  _359
REMARK  154  A    between atoms: _362  and  _364
REMARK  155  A    between atoms: _364  and  _365
REMARK  156  A    between atoms: _364  and  _367
REMARK  157  A    between atoms: _367  and  _368
REMARK  158  A    between atoms: _371  and  _373
REMARK  159  A    between atoms: _373  and  _374
REMARK  160  A    between atoms: _373  and  _376
REMARK  161  A    between atoms: _376  and  _377
REMARK  162  A    between atoms: _377  and  _378
REMARK  163  A    between atoms: _378  and  _379
REMARK  164  A    between atoms: _379  and  _380
REMARK  165  A    between atoms: _384  and  _386
REMARK  166  A    between atoms: _386  and  _387
REMARK  167  A    between atoms: _386  and  _389
REMARK  168  A    between atoms: _389  and  _390
REMARK  169  A    between atoms: _395  and  _397
REMARK  170  A    between atoms: _397  and  _398
REMARK  171  A    between atoms: _397  and  _400
REMARK  172  A    between atoms: _400  and  _401
REMARK  173  A    between atoms: _411  and  _413
REMARK  174  A    between atoms: _413  and  _414
REMARK  175  A    between atoms: _413  and  _416
REMARK  176  A    between atoms: _416  and  _417
REMARK  177  A    between atoms: _417  and  _418
REMARK  178  A    between atoms: _421  and  _423
REMARK  179  A    between atoms: _423  and  _424
REMARK  180  A    between atoms: _423  and  _426
REMARK  181  A    between atoms: _426  and  _427
REMARK  182  A    between atoms: _429  and  _431
REMARK  183  A    between atoms: _431  and  _432
REMARK  184  A    between atoms: _431  and  _434
REMARK  185  A    between atoms: _434  and  _435
REMARK  186  A    between atoms: _441  and  _443
REMARK  187  A    between atoms: _443  and  _444
REMARK  188  A    between atoms: _443  and  _446
REMARK  189  A    between atoms: _446  and  _447
REMARK  190  A    between atoms: _450  and  _452
REMARK  191  A    between atoms: _452  and  _453
REMARK  192  A    between atoms: _452  and  _455
REMARK  193  A    between atoms: _458  and  _460
REMARK  194  A    between atoms: _460  and  _461
REMARK  195  A    between atoms: _463  and  _465
REMARK  196  A    between atoms: _465  and  _466
REMARK  197  A    between atoms: _465  and  _468
REMARK  198  A    between atoms: _468  and  _469
REMARK  199  A    between atoms: _472  and  _474
REMARK  200  A    between atoms: _474  and  _475
REMARK  201  A    between atoms: _474  and  _477
REMARK  202  A    between atoms: _477  and  _478
REMARK  203  A    between atoms: _478  and  _479
REMARK  204  A    between atoms: _479  and  _480
REMARK  205  A    between atoms: _480  and  _481
REMARK  206  A    between atoms: _485  and  _487
REMARK  207  A    between atoms: _487  and  _488
REMARK  208  A    between atoms: _487  and  _490
REMARK                            x       y       z     vdW  Elec       q    Type
REMARK                         _______ _______ _______ _____ _____    ______ ____
ROOT
ATOM      1  CA  ILE A   1      77.887  12.287  28.236  0.00  0.00    +0.133 C 
ENDROOT
BRANCH   1   2
ATOM      2  N   ILE A   1      78.893  11.385  27.652  0.00  0.00    -0.239 NA
ATOM      3  H   ILE A   1      79.682  11.072  28.253  0.00  0.00    +0.142 HD
ENDBRANCH   1   2
BRANCH   1   4
ATOM      4  CB  ILE A   1      77.029  11.536  29.301  0.00  0.00    +0.023 C 
ATOM      5  CG2 ILE A   1      76.128  12.534  30.084  0.00  0.00    +0.002 C 
BRANCH   4   6
ATOM      6  CG1 ILE A   1      76.180  10.424  28.654  0.00  0.00    +0.002 C 
ATOM      7  CD1 ILE A   1      75.540   9.415  29.684  0.00  0.00    +0.000 C 
ENDBRANCH   4   6
ENDBRANCH   1   4
BRANCH   1   8
ATOM      8  C   ILE A   1      78.640  13.448  28.878  0.00  0.00    +0.224 C 
ATOM      9  O   ILE A   1      79.576  13.209  29.649  0.00  0.00    -0.287 OA
ENDBRANCH   1   8
TORSDOF 4
REMARK  Name = ../refined-set-2016/3b25/3b25_pocket.pdb
REMARK  208 active torsions:
REMARK  status: ('A' for Active; 'I' for Inactive)
REMARK    1  A    between atoms: _1  and  _3
REMARK    2  A    between atoms: _3  and  _4
REMARK    3  A    between atoms: _3  and  _6
REMARK    4  A    between atoms: _6  and  _7
REMARK    5  A    between atoms: _13  and  _15
REMARK    6  A    between atoms: _15  and  _16
REMARK    7  A    between atoms: _15  and  _18
REMARK    8  A    between atoms: _18  and  _19
REMARK    9  A    between atoms: _19  and  _20
REMARK   10  A    between atoms: _23  and  _25
REMARK   11  A    between atoms: _25  and  _26
REMARK   12  A    between atoms: _25  and  _28
REMARK   13  A    between atoms: _28  and  _29
REMARK   14  A    between atoms: _32  and  _34
REMARK   15  A    between atoms: _34  and  _35
REMARK   16  A    between atoms: _34  and  _37
REMARK   17  A    between atoms: _37  and  _38
REMARK   18  A    between atoms: _41  and  _43
REMARK   19  A    between atoms: _43  and  _44
REMARK   20  A    between atoms: _43  and  _46
REMARK   21  A    between atoms: _46  and  _47
REMARK   22  A    between atoms: _49  and  _51
REMARK   23  A    between atoms: _51  and  _52
REMARK   24  A    between atoms: _51  and  _54
REMARK   25  A    between atoms: _54  and  _55
REMARK   26  A    between atoms: _60  and  _62
REMARK   27  A    between atoms: _62  and  _63
REMARK   28  A    between atoms: _62  and  _65
REMARK   29  A    between atoms: _65  and  _66
REMARK   30  A    between atoms: _68  and  _70
REMARK   31  A    between atoms: _70  and  _71
REMARK   32  A    between atoms: _70  and  _73
REMARK   33  A    between atoms: _73  and  _74
REMARK   34  A    between atoms: _76  and  _78
REMARK   35  A    between atoms: _78  and  _79
REMARK   36  A    between atoms: _78  and  _81
REMARK   37  A    between atoms: _81  and  _82
REMARK   38  A    between atoms: _85  and  _87
REMARK   39  A    between atoms: _87  and  _88
REMARK   40  A    between atoms: _91  and  _93
REMARK   41  A    between atoms: _93  and  _94
REMARK   42  A    between atoms: _93  and  _96
REMARK   43  A    between atoms: _96  and  _97
REMARK   44  A    between atoms: _100  and  _102
REMARK   45  A    between atoms: _102  and  _103
REMARK   46  A    between atoms: _102  and  _105
REMARK   47  A    between atoms: _105  and  _106
REMARK   48  A    between atoms: _106  and  _107
REMARK   49  A    between atoms: _107  and  _108
REMARK   50  A    between atoms: _108  and  _109
REMARK   51  A    between atoms: _113  and  _115
REMARK   52  A    between atoms: _115  and  _116
REMARK   53  A    between atoms: _115  and  _118
REMARK   54  A    between atoms: _118  and  _119
REMARK   55  A    between atoms: _122  and  _124
REMARK   56  A    between atoms: _124  and  _125
REMARK   57  A    between atoms: _124  and  _127
REMARK   58  A    between atoms: _127  and  _128
REMARK   59  A    between atoms: _131  and  _133
REMARK   60  A    between atoms: _133  and  _134
REMARK   61  A    between atoms: _133  and  _136
REMARK   62  A    between atoms: _136  and  _137
REMARK   63  A    between atoms: _140  and  _142
REMARK   64  A    between atoms: _142  and  _143
REMARK   65  A    between atoms: _142  and  _145
REMARK   66  A    between atoms: _148  and  _150
REMARK   67  A    between atoms: _150  and  _151
REMARK   68  A    between atoms: _150  and  _153
REMARK   69  A    between atoms: _153  and  _154
REMARK   70  A    between atoms: _157  and  _159
REMARK   71  A    between atoms: _159  and  _160
REMARK   72  A    between atoms: _159  and  _162
REMARK   73  A    between atoms: _162  and  _163
REMARK   74  A    between atoms: _166  and  _168
REMARK   75  A    between atoms: _168  and  _169
REMARK   76  A    between atoms: _171  and  _173
REMARK   77  A    between atoms: _173  and  _174
REMARK   78  A    between atoms: _173  and  _176
REMARK   79  A    between atoms: _176  and  _177
REMARK   80  A    between atoms: _180  and  _182
REMARK   81  A    between atoms: _182  and  _183
REMARK   82  A    between atoms: _185  and  _187
REMARK   83  A    between atoms: _187  and  _188
REMARK   84  A    between atoms: _187  and  _190
REMARK   85  A    between atoms: _190  and  _191
REMARK   86  A    between atoms: _191  and  _192
REMARK   87  A    between atoms: _194  and  _196
REMARK   88  A    between atoms: _196  and  _197
REMARK   89  A    between atoms: _196  and  _199
REMARK   90  A    between atoms: _199  and  _200
REMARK   91  A    between atoms: _203  and  _205
REMARK   92  A    between atoms: _205  and  _206
REMARK   93  A    between atoms: _205  and  _208
REMARK   94  A    between atoms: _208  and  _209
REMARK   95  A    between atoms: _212  and  _214
REMARK   96  A    between atoms: _214  and  _215
REMARK   97  A    between atoms: _214  and  _217
REMARK   98  A    between atoms: _217  and  _218
REMARK   99  A    between atoms: _221  and  _223
REMARK  100  A    between atoms: _223  and  _224
REMARK  101  A    between atoms: _223  and  _226
REMARK  102  A    between atoms: _226  and  _227
REMARK  103  A    between atoms: _230  and  _232
REMARK  104  A    between atoms: _232  and  _233
REMARK  105  A    between atoms: _232  and  _235
REMARK  106  A    between atoms: _235  and  _236
REMARK  107  A    between atoms: _241  and  _243
REMARK  108  A    between atoms: _243  and  _244
REMARK  109  A    between atoms: _243  and  _246
REMARK  110  A    between atoms: _246  and  _247
REMARK  111  A    between atoms: _250  and  _252
REMARK  112  A    between atoms: _252  and  _253
REMARK  113  A    between atoms: _255  and  _257
REMARK  114  A    between atoms: _257  and  _258
REMARK  115  A    between atoms: _257  and  _260
REMARK  116  A    between atoms: _260  and  _261
REMARK  117  A    between atoms: _264  and  _266
REMARK  118  A    between atoms: _266  and  _267
REMARK  119  A    between atoms: _270  and  _272
REMARK  120  A    between atoms: _272  and  _273
REMARK  121  A    between atoms: _275  and  _277
REMARK  122  A    between atoms: _277  and  _278
REMARK  123  A    between atoms: _277  and  _280
REMARK  124  A    between atoms: _283  and  _285
REMARK  125  A    between atoms: _285  and  _286
REMARK  126  A    between atoms: _288  and  _290
REMARK  127  A    between atoms: _290  and  _291
REMARK  128  A    between atoms: _290  and  _293
REMARK  129  A    between atoms: _293  and  _294
REMARK  130  A    between atoms: _300  and  _302
REMARK  131  A    between atoms: _302  and  _303
REMARK  132  A    between atoms: _302  and  _305
REMARK  133  A    between atoms: _305  and  _306
REMARK  134  A    between atoms: _311  and  _312
REMARK  135  A    between atoms: _314  and  _316
REMARK  136  A    between atoms: _316  and  _317
REMARK  137  A    between atoms: _316  and  _319
REMARK  138  A    between atoms: _319  and  _320
REMARK  139  A    between atoms: _325  and  _326
REMARK  140  A    between atoms: _328  and  _330
REMARK  141  A    between atoms: _330  and  _331
REMARK  142  A    between atoms: _330  and  _333
REMARK  143  A    between atoms: _336  and  _338
REMARK  144  A    between atoms: _338  and  _339
REMARK  145  A    between atoms: _338  and  _341
REMARK  146  A    between atoms: _341  and  _342
REMARK  147  A    between atoms: _345  and  _347
REMARK  148  A    between atoms: _347  and  _348
REMARK  149  A    between atoms: _347  and  _350
REMARK  150  A    between atoms: _353  and  _355
REMARK  151  A    between atoms: _355  and  _356
REMARK  152  A    between atoms: _355  and  _358
REMARK  153  A    between atoms: _358  and  _359
REMARK  154  A    between atoms: _362  and  _364
REMARK  155  A    between atoms: _364  and  _365
REMARK  156  A    between atoms: _364  and  _367
REMARK  157  A    between atoms: _367  and  _368
REMARK  158  A    between atoms: _371  and  _373
REMARK  159  A    between atoms: _373  and  _374
REMARK  160  A    between atoms: _373  and  _376
REMARK  161  A    between atoms: _376  and  _377
REMARK  162  A    between atoms: _377  and  _378
REMARK  163  A    between atoms: _378  and  _379
REMARK  164  A    between atoms: _379  and  _380
REMARK  165  A    between atoms: _384  and  _386
REMARK  166  A    between atoms: _386  and  _387
REMARK  167  A    between atoms: _386  and  _389
REMARK  168  A    between atoms: _389  and  _390
REMARK  169  A    between atoms: _395  and  _397
REMARK  170  A    between atoms: _397  and  _398
REMARK  171  A    between atoms: _397  and  _400
REMARK  172  A    between atoms: _400  and  _401
REMARK  173  A    between atoms: _411  and  _413
REMARK  174  A    between atoms: _413  and  _414
REMARK  175  A    between atoms: _413  and  _416
REMARK  176  A    between atoms: _416  and  _417
REMARK  177  A    between atoms: _417  and  _418
REMARK  178  A    between atoms: _421  and  _423
REMARK  179  A    between atoms: _423  and  _424
REMARK  180  A    between atoms: _423  and  _426
REMARK  181  A    between atoms: _426  and  _427
REMARK  182  A    between atoms: _429  and  _431
REMARK  183  A    between atoms: _431  and  _432
REMARK  184  A    between atoms: _431  and  _434
REMARK  185  A    between atoms: _434  and  _435
REMARK  186  A    between atoms: _441  and  _443
REMARK  187  A    between atoms: _443  and  _444
REMARK  188  A    between atoms: _443  and  _446
REMARK  189  A    between atoms: _446  and  _447
REMARK  190  A    between atoms: _450  and  _452
REMARK  191  A    between atoms: _452  and  _453
REMARK  192  A    between atoms: _452  and  _455
REMARK  193  A    between atoms: _458  and  _460
REMARK  194  A    between atoms: _460  and  _461
REMARK  195  A    between atoms: _463  and  _465
REMARK  196  A    between atoms: _465  and  _466
REMARK  197  A    between atoms: _465  and  _468
REMARK  198  A    between atoms: _468  and  _469
REMARK  199  A    between atoms: _472  and  _474
REMARK  200  A    between atoms: _474  and  _475
REMARK  201  A    between atoms: _474  and  _477
REMARK  202  A    between atoms: _477  and  _478
REMARK  203  A    between atoms: _478  and  _479
REMARK  204  A    between atoms: _479  and  _480
REMARK  205  A    between atoms: _480  and  _481
REMARK  206  A    between atoms: _485  and  _487
REMARK  207  A    between atoms: _487  and  _488
REMARK  208  A    between atoms: _487  and  _490
REMARK                            x       y       z     vdW  Elec       q    Type
REMARK                         _______ _______ _______ _____ _____    ______ ____
ROOT
ATOM      1  C   THR A   4      75.828  10.338  21.037  0.00  0.00    +0.243 C 
ATOM      2  N   GLY A   5      74.611  10.153  21.562  0.00  0.00    -0.295 N 
ATOM      3  H   GLY A   5      74.232  10.881  22.201  0.00  0.00    +0.150 HD
ATOM      4  O   THR A   4      76.369   9.514  20.281  0.00  0.00    -0.273 OA
ENDROOT
BRANCH   2   5
ATOM      5  CA  GLY A   5      73.791   8.983  21.282  0.00  0.00    +0.176 C 
BRANCH   5   6
ATOM      6  C   GLY A   5      73.188   9.014  19.885  0.00  0.00    +0.243 C 
ATOM      7  N   ILE A   6      72.168   8.175  19.655  0.00  0.00    -0.297 N 
ATOM      8  H   ILE A   6      71.822   7.582  20.436  0.00  0.00    +0.150 HD
ATOM      9  O   GLY A   5      73.585   9.821  19.043  0.00  0.00    -0.273 OA
BRANCH   7  10
ATOM     10  CA  ILE A   6      71.522   8.062  18.342  0.00  0.00    +0.149 C 
BRANCH  10  11
ATOM     11  C   ILE A   6      70.846   9.368  17.830  0.00  0.00    +0.241 C 
ATOM     12  N   GLY A   7      70.368  10.197  18.759  0.00  0.00    -0.295 N 
ATOM     13  H   GLY A   7      70.509   9.972  19.764  0.00  0.00    +0.150 HD
ATOM     14  O   ILE A   6      70.723   9.581  16.620  0.00  0.00    -0.273 OA
BRANCH  12  15
ATOM     15  CA  GLY A   7      69.654  11.408  18.394  0.00  0.00    +0.176 C 
BRANCH  15  16
ATOM     16  C   GLY A   7      68.228  11.085  18.003  0.00  0.00    +0.243 C 
ATOM     17  O   GLY A   7      67.806   9.922  18.018  0.00  0.00    -0.273 OA
ATOM     18  N   MET A   8      67.480  12.121  17.647  0.00  0.00    -0.297 N 
ATOM     19  H   MET A   8      67.917  13.064  17.630  0.00  0.00    +0.150 HD
BRANCH  18  20
ATOM     20  CA  MET A   8      66.082  12.002  17.280  0.00  0.00    +0.149 C 
BRANCH  20  21
ATOM     21  C   MET A   8      65.787  12.679  15.959  0.00  0.00    +0.241 C 
ATOM     22  O   MET A   8      66.254  13.792  15.702  0.00  0.00    -0.273 OA
ATOM     23  N   THR A   9      64.945  12.030  15.141  0.00  0.00    -0.296 N 
ATOM     24  H   THR A   9      64.600  11.085  15.404  0.00  0.00    +0.150 HD
BRANCH  23  25
ATOM     25  CA  THR A   9      64.507  12.635  13.885  0.00  0.00    +0.164 C 
BRANCH  25  26
ATOM     26  CB  THR A   9      63.950  11.553  12.935  0.00  0.00    +0.136 C 
ATOM     27  CG2 THR A   9      64.987  10.476  12.580  0.00  0.00    +0.034 C 
BRANCH  26  28
ATOM     28  OG1 THR A   9      62.809  10.949  13.551  0.00  0.00    -0.382 OA
ATOM     29  HG1 THR A   9      62.442  10.252  12.951  0.00  0.00    +0.210 HD
ENDBRANCH  26  28
ENDBRANCH  25  26
BRANCH  25  30
ATOM     30  C   THR A   9      63.362  13.610  14.252  0.00  0.00    +0.229 C 
ATOM     31  O   THR A   9      62.859  13.570  15.375  0.00  0.00    -0.286 OA
ENDBRANCH  25  30
ENDBRANCH  23  25
ENDBRANCH  20  21
BRANCH  20  32
ATOM     32  CB  MET A   8      65.184  12.612  18.365  0.00  0.00    +0.041 C 
BRANCH  32  33
ATOM     33  CG  MET A   8      65.117  11.774  19.625  0.00  0.00    +0.060 C 
BRANCH  33  34
ATOM     34  SD  MET A   8      64.136  12.548  20.908  0.00  0.00    -0.139 S 
ATOM     35  CE  MET A   8      65.363  13.714  21.588  0.00  0.00    +0.069 C 
ENDBRANCH  33  34
ENDBRANCH  32  33
ENDBRANCH  20  32
ENDBRANCH  18  20
ENDBRANCH  15  16
ENDBRANCH  12  15
ENDBRANCH  10  11
BRANCH  10  36
ATOM     36  CB  ILE A   6      70.552   6.850  18.324  0.00  0.00    +0.027 C 
ATOM     37  CG2 ILE A   6      69.338   7.051  19.249  0.00  0.00    +0.002 C 
BRANCH  36  38
ATOM     38  CG1 ILE A   6      70.128   6.522  16.878  0.00  0.00    +0.002 C 
ATOM     39  CD1 ILE A   6      70.231   5.090  16.547  0.00  0.00    +0.000 C 
ENDBRANCH  36  38
ENDBRANCH  10  36
ENDBRANCH   7  10
ENDBRANCH   5   6
ENDBRANCH   2   5
BRANCH   1  40
ATOM     40  CA  THR A   4      76.536  11.655  21.423  0.00  0.00    +0.176 C 
BRANCH  40  42
ATOM     41  C   ASP A   3      75.466  12.884  23.228  0.00  0.00    +0.241 C 
ATOM     42  N   THR A   4      76.267  11.908  22.846  0.00  0.00    -0.295 N 
ATOM     43  H   THR A   4      76.717  11.306  23.565  0.00  0.00    +0.150 HD
ATOM     44  O   ASP A   3      74.939  13.675  22.432  0.00  0.00    -0.273 OA
BRANCH  41  45
ATOM     45  CA  ASP A   3      75.161  12.953  24.717  0.00  0.00    +0.160 C 
BRANCH  45  48
ATOM     46  C   VAL A   2      75.167  14.936  26.099  0.00  0.00    +0.241 C 
ATOM     47  O   VAL A   2      75.998  14.436  26.864  0.00  0.00    -0.273 OA
ATOM     48  N   ASP A   3      74.662  14.286  25.046  0.00  0.00    -0.297 N 
ATOM     49  H   ASP A   3      73.920  14.726  24.465  0.00  0.00    +0.150 HD
BRANCH  46  50
ATOM     50  CA  VAL A   2      74.772  16.392  26.287  0.00  0.00    +0.148 C 
BRANCH  50  52
ATOM     51  C   ILE A   1      73.203  16.872  28.123  0.00  0.00    +0.238 C 
ATOM     52  N   VAL A   2      74.444  16.630  27.701  0.00  0.00    -0.297 N 
ATOM     53  H   VAL A   2      75.213  16.609  28.401  0.00  0.00    +0.150 HD
ATOM     54  O   ILE A   1      72.221  16.897  27.367  0.00  0.00    -0.274 OA
BRANCH  51  55
ATOM     55  CA  ILE A   1      73.022  17.176  29.630  0.00  0.00    +0.145 C 
BRANCH  55  56
ATOM     56  N   ILE A   1      72.605  18.594  29.655  0.00  0.00    -0.238 NA
ATOM     57  H   ILE A   1      71.671  18.843  29.271  0.00  0.00    +0.142 HD
ENDBRANCH  55  56
BRANCH  55  58
ATOM     58  CB  ILE A   1      71.956  16.251  30.273  0.00  0.00    +0.025 C 
ATOM     59  CG2 ILE A   1      72.312  14.770  30.043  0.00  0.00    +0.002 C 
BRANCH  58  60
ATOM     60  CG1 ILE A   1      71.802  16.546  31.801  0.00  0.00    +0.002 C 
ATOM     61  CD1 ILE A   1      70.819  17.642  32.143  0.00  0.00    +0.000 C 
ENDBRANCH  58  60
ENDBRANCH  55  58
ENDBRANCH  51  55
ENDBRANCH  50  52
BRANCH  50  62
ATOM     62  CB  VAL A   2      75.996  17.263  25.820  0.00  0.00    +0.027 C 
ATOM     63  CG2 VAL A   2      75.832  18.728  26.134  0.00  0.00    +0.002 C 
ATOM     64  CG1 VAL A   2      76.283  17.072  24.318  0.00  0.00    +0.002 C 
ENDBRANCH  50  62
ENDBRANCH  46  50
ENDBRANCH  45  48
BRANCH  45  65
ATOM     65  CB  ASP A   3      74.178  11.853  25.163  0.00  0.00    +0.143 C 
BRANCH  65  66
ATOM     66  CG  ASP A   3      72.860  11.874  24.429  0.00  0.00    +0.367 C 
ATOM     67  OD2 ASP A   3      71.826  12.094  25.084  0.00  0.00    -0.246 OA
ATOM     68  OD1 ASP A   3      72.858  11.598  23.201  0.00  0.00    -0.246 OA
ENDBRANCH  65  66
ENDBRANCH  45  65
ENDBRANCH  41  45
ENDBRANCH  40  42
BRANCH  40  69
ATOM     69  CB  THR A   4      78.055  11.650  21.184  0.00  0.00    +0.137 C 
ATOM     70  CG2 THR A   4      78.701  13.008  21.463  0.00  0.00    +0.034 C 
BRANCH  69  71
ATOM     71  OG1 THR A   4      78.630  10.674  22.033  0.00  0.00    -0.382 OA
ATOM     72  HG1 THR A   4      79.610  10.654  21.895  0.00  0.00    +0.210 HD
ENDBRANCH  69  71
ENDBRANCH  40  69
ENDBRANCH   1  40
TORSDOF 32
REMARK  Name = ../refined-set-2016/3b25/3b25_pocket.pdb
REMARK  208 active torsions:
REMARK  status: ('A' for Active; 'I' for Inactive)
REMARK    1  A    between atoms: _1  and  _3
REMARK    2  A    between atoms: _3  and  _4
REMARK    3  A    between atoms: _3  and  _6
REMARK    4  A    between atoms: _6  and  _7
REMARK    5  A    between atoms: _13  and  _15
REMARK    6  A    between atoms: _15  and  _16
REMARK    7  A    between atoms: _15  and  _18
REMARK    8  A    between atoms: _18  and  _19
REMARK    9  A    between atoms: _19  and  _20
REMARK   10  A    between atoms: _23  and  _25
REMARK   11  A    between atoms: _25  and  _26
REMARK   12  A    between atoms: _25  and  _28
REMARK   13  A    between atoms: _28  and  _29
REMARK   14  A    between atoms: _32  and  _34
REMARK   15  A    between atoms: _34  and  _35
REMARK   16  A    between atoms: _34  and  _37
REMARK   17  A    between atoms: _37  and  _38
REMARK   18  A    between atoms: _41  and  _43
REMARK   19  A    between atoms: _43  and  _44
REMARK   20  A    between atoms: _43  and  _46
REMARK   21  A    between atoms: _46  and  _47
REMARK   22  A    between atoms: _49  and  _51
REMARK   23  A    between atoms: _51  and  _52
REMARK   24  A    between atoms: _51  and  _54
REMARK   25  A    between atoms: _54  and  _55
REMARK   26  A    between atoms: _60  and  _62
REMARK   27  A    between atoms: _62  and  _63
REMARK   28  A    between atoms: _62  and  _65
REMARK   29  A    between atoms: _65  and  _66
REMARK   30  A    between atoms: _68  and  _70
REMARK   31  A    between atoms: _70  and  _71
REMARK   32  A    between atoms: _70  and  _73
REMARK   33  A    between atoms: _73  and  _74
REMARK   34  A    between atoms: _76  and  _78
REMARK   35  A    between atoms: _78  and  _79
REMARK   36  A    between atoms: _78  and  _81
REMARK   37  A    between atoms: _81  and  _82
REMARK   38  A    between atoms: _85  and  _87
REMARK   39  A    between atoms: _87  and  _88
REMARK   40  A    between atoms: _91  and  _93
REMARK   41  A    between atoms: _93  and  _94
REMARK   42  A    between atoms: _93  and  _96
REMARK   43  A    between atoms: _96  and  _97
REMARK   44  A    between atoms: _100  and  _102
REMARK   45  A    between atoms: _102  and  _103
REMARK   46  A    between atoms: _102  and  _105
REMARK   47  A    between atoms: _105  and  _106
REMARK   48  A    between atoms: _106  and  _107
REMARK   49  A    between atoms: _107  and  _108
REMARK   50  A    between atoms: _108  and  _109
REMARK   51  A    between atoms: _113  and  _115
REMARK   52  A    between atoms: _115  and  _116
REMARK   53  A    between atoms: _115  and  _118
REMARK   54  A    between atoms: _118  and  _119
REMARK   55  A    between atoms: _122  and  _124
REMARK   56  A    between atoms: _124  and  _125
REMARK   57  A    between atoms: _124  and  _127
REMARK   58  A    between atoms: _127  and  _128
REMARK   59  A    between atoms: _131  and  _133
REMARK   60  A    between atoms: _133  and  _134
REMARK   61  A    between atoms: _133  and  _136
REMARK   62  A    between atoms: _136  and  _137
REMARK   63  A    between atoms: _140  and  _142
REMARK   64  A    between atoms: _142  and  _143
REMARK   65  A    between atoms: _142  and  _145
REMARK   66  A    between atoms: _148  and  _150
REMARK   67  A    between atoms: _150  and  _151
REMARK   68  A    between atoms: _150  and  _153
REMARK   69  A    between atoms: _153  and  _154
REMARK   70  A    between atoms: _157  and  _159
REMARK   71  A    between atoms: _159  and  _160
REMARK   72  A    between atoms: _159  and  _162
REMARK   73  A    between atoms: _162  and  _163
REMARK   74  A    between atoms: _166  and  _168
REMARK   75  A    between atoms: _168  and  _169
REMARK   76  A    between atoms: _171  and  _173
REMARK   77  A    between atoms: _173  and  _174
REMARK   78  A    between atoms: _173  and  _176
REMARK   79  A    between atoms: _176  and  _177
REMARK   80  A    between atoms: _180  and  _182
REMARK   81  A    between atoms: _182  and  _183
REMARK   82  A    between atoms: _185  and  _187
REMARK   83  A    between atoms: _187  and  _188
REMARK   84  A    between atoms: _187  and  _190
REMARK   85  A    between atoms: _190  and  _191
REMARK   86  A    between atoms: _191  and  _192
REMARK   87  A    between atoms: _194  and  _196
REMARK   88  A    between atoms: _196  and  _197
REMARK   89  A    between atoms: _196  and  _199
REMARK   90  A    between atoms: _199  and  _200
REMARK   91  A    between atoms: _203  and  _205
REMARK   92  A    between atoms: _205  and  _206
REMARK   93  A    between atoms: _205  and  _208
REMARK   94  A    between atoms: _208  and  _209
REMARK   95  A    between atoms: _212  and  _214
REMARK   96  A    between atoms: _214  and  _215
REMARK   97  A    between atoms: _214  and  _217
REMARK   98  A    between atoms: _217  and  _218
REMARK   99  A    between atoms: _221  and  _223
REMARK  100  A    between atoms: _223  and  _224
REMARK  101  A    between atoms: _223  and  _226
REMARK  102  A    between atoms: _226  and  _227
REMARK  103  A    between atoms: _230  and  _232
REMARK  104  A    between atoms: _232  and  _233
REMARK  105  A    between atoms: _232  and  _235
REMARK  106  A    between atoms: _235  and  _236
REMARK  107  A    between atoms: _241  and  _243
REMARK  108  A    between atoms: _243  and  _244
REMARK  109  A    between atoms: _243  and  _246
REMARK  110  A    between atoms: _246  and  _247
REMARK  111  A    between atoms: _250  and  _252
REMARK  112  A    between atoms: _252  and  _253
REMARK  113  A    between atoms: _255  and  _257
REMARK  114  A    between atoms: _257  and  _258
REMARK  115  A    between atoms: _257  and  _260
REMARK  116  A    between atoms: _260  and  _261
REMARK  117  A    between atoms: _264  and  _266
REMARK  118  A    between atoms: _266  and  _267
REMARK  119  A    between atoms: _270  and  _272
REMARK  120  A    between atoms: _272  and  _273
REMARK  121  A    between atoms: _275  and  _277
REMARK  122  A    between atoms: _277  and  _278
REMARK  123  A    between atoms: _277  and  _280
REMARK  124  A    between atoms: _283  and  _285
REMARK  125  A    between atoms: _285  and  _286
REMARK  126  A    between atoms: _288  and  _290
REMARK  127  A    between atoms: _290  and  _291
REMARK  128  A    between atoms: _290  and  _293
REMARK  129  A    between atoms: _293  and  _294
REMARK  130  A    between atoms: _300  and  _302
REMARK  131  A    between atoms: _302  and  _303
REMARK  132  A    between atoms: _302  and  _305
REMARK  133  A    between atoms: _305  and  _306
REMARK  134  A    between atoms: _311  and  _312
REMARK  135  A    between atoms: _314  and  _316
REMARK  136  A    between atoms: _316  and  _317
REMARK  137  A    between atoms: _316  and  _319
REMARK  138  A    between atoms: _319  and  _320
REMARK  139  A    between atoms: _325  and  _326
REMARK  140  A    between atoms: _328  and  _330
REMARK  141  A    between atoms: _330  and  _331
REMARK  142  A    between atoms: _330  and  _333
REMARK  143  A    between atoms: _336  and  _338
REMARK  144  A    between atoms: _338  and  _339
REMARK  145  A    between atoms: _338  and  _341
REMARK  146  A    between atoms: _341  and  _342
REMARK  147  A    between atoms: _345  and  _347
REMARK  148  A    between atoms: _347  and  _348
REMARK  149  A    between atoms: _347  and  _350
REMARK  150  A    between atoms: _353  and  _355
REMARK  151  A    between atoms: _355  and  _356
REMARK  152  A    between atoms: _355  and  _358
REMARK  153  A    between atoms: _358  and  _359
REMARK  154  A    between atoms: _362  and  _364
REMARK  155  A    between atoms: _364  and  _365
REMARK  156  A    between atoms: _364  and  _367
REMARK  157  A    between atoms: _367  and  _368
REMARK  158  A    between atoms: _371  and  _373
REMARK  159  A    between atoms: _373  and  _374
REMARK  160  A    between atoms: _373  and  _376
REMARK  161  A    between atoms: _376  and  _377
REMARK  162  A    between atoms: _377  and  _378
REMARK  163  A    between atoms: _378  and  _379
REMARK  164  A    between atoms: _379  and  _380
REMARK  165  A    between atoms: _384  and  _386
REMARK  166  A    between atoms: _386  and  _387
REMARK  167  A    between atoms: _386  and  _389
REMARK  168  A    between atoms: _389  and  _390
REMARK  169  A    between atoms: _395  and  _397
REMARK  170  A    between atoms: _397  and  _398
REMARK  171  A    between atoms: _397  and  _400
REMARK  172  A    between atoms: _400  and  _401
REMARK  173  A    between atoms: _411  and  _413
REMARK  174  A    between atoms: _413  and  _414
REMARK  175  A    between atoms: _413  and  _416
REMARK  176  A    between atoms: _416  and  _417
REMARK  177  A    between atoms: _417  and  _418
REMARK  178  A    between atoms: _421  and  _423
REMARK  179  A    between atoms: _423  and  _424
REMARK  180  A    between atoms: _423  and  _426
REMARK  181  A    between atoms: _426  and  _427
REMARK  182  A    between atoms: _429  and  _431
REMARK  183  A    between atoms: _431  and  _432
REMARK  184  A    between atoms: _431  and  _434
REMARK  185  A    between atoms: _434  and  _435
REMARK  186  A    between atoms: _441  and  _443
REMARK  187  A    between atoms: _443  and  _444
REMARK  188  A    between atoms: _443  and  _446
REMARK  189  A    between atoms: _446  and  _447
REMARK  190  A    between atoms: _450  and  _452
REMARK  191  A    between atoms: _452  and  _453
REMARK  192  A    between atoms: _452  and  _455
REMARK  193  A    between atoms: _458  and  _460
REMARK  194  A    between atoms: _460  and  _461
REMARK  195  A    between atoms: _463  and  _465
REMARK  196  A    between atoms: _465  and  _466
REMARK  197  A    between atoms: _465  and  _468
REMARK  198  A    between atoms: _468  and  _469
REMARK  199  A    between atoms: _472  and  _474
REMARK  200  A    between atoms: _474  and  _475
REMARK  201  A    between atoms: _474  and  _477
REMARK  202  A    between atoms: _477  and  _478
REMARK  203  A    between atoms: _478  and  _479
REMARK  204  A    between atoms: _479  and  _480
REMARK  205  A    between atoms: _480  and  _481
REMARK  206  A    between atoms: _485  and  _487
REMARK  207  A    between atoms: _487  and  _488
REMARK  208  A    between atoms: _487  and  _490
REMARK                            x       y       z     vdW  Elec       q    Type
REMARK                         _______ _______ _______ _____ _____    ______ ____
ROOT
ATOM      1  CA  LEU A   2      60.468  14.595  18.508  0.00  0.00    +0.149 C 
ENDROOT
BRANCH   1   4
ATOM      2  C   ASP A   1      60.288  12.198  17.905  0.00  0.00    +0.239 C 
ATOM      3  O   ASP A   1      59.534  11.937  18.841  0.00  0.00    -0.274 OA
ATOM      4  N   LEU A   2      60.760  13.428  17.668  0.00  0.00    -0.297 N 
ATOM      5  H   LEU A   2      61.371  13.565  16.838  0.00  0.00    +0.150 HD
BRANCH   2   6
ATOM      6  CA  ASP A   1      60.710  11.104  16.927  0.00  0.00    +0.156 C 
BRANCH   6   7
ATOM      7  N   ASP A   1      60.468  11.552  15.552  0.00  0.00    -0.238 NA
ATOM      8  H   ASP A   1      61.282  11.630  14.909  0.00  0.00    +0.142 HD
ENDBRANCH   6   7
BRANCH   6   9
ATOM      9  CB  ASP A   1      62.204  10.798  17.136  0.00  0.00    +0.140 C 
BRANCH   9  10
ATOM     10  CG  ASP A   1      62.659   9.449  16.630  0.00  0.00    +0.367 C 
ATOM     11  OD2 ASP A   1      61.822   8.514  16.589  0.00  0.00    -0.246 OA
ATOM     12  OD1 ASP A   1      63.853   9.330  16.254  0.00  0.00    -0.246 OA
ENDBRANCH   9  10
ENDBRANCH   6   9
ENDBRANCH   2   6
ENDBRANCH   1   4
BRANCH   1  13
ATOM     13  C   LEU A   2      59.009  14.940  18.624  0.00  0.00    +0.241 C 
ATOM     14  O   LEU A   2      58.535  15.219  19.725  0.00  0.00    -0.273 OA
ATOM     15  N   ILE A   3      58.315  15.011  17.480  0.00  0.00    -0.298 N 
ATOM     16  H   ILE A   3      58.805  14.755  16.599  0.00  0.00    +0.150 HD
BRANCH  15  17
ATOM     17  CA  ILE A   3      56.917  15.423  17.386  0.00  0.00    +0.137 C 
BRANCH  17  18
ATOM     18  C   ILE A   3      55.903  14.362  17.778  0.00  0.00    +0.227 C 
ATOM     19  O   ILE A   3      54.964  14.670  18.520  0.00  0.00    -0.286 OA
ENDBRANCH  17  18
BRANCH  17  20
ATOM     20  CB  ILE A   3      56.604  15.966  15.967  0.00  0.00    +0.026 C 
ATOM     21  CG2 ILE A   3      55.117  16.247  15.792  0.00  0.00    +0.002 C 
BRANCH  20  22
ATOM     22  CG1 ILE A   3      57.435  17.211  15.624  0.00  0.00    +0.002 C 
ATOM     23  CD1 ILE A   3      57.447  17.488  14.162  0.00  0.00    +0.000 C 
ENDBRANCH  20  22
ENDBRANCH  17  20
ENDBRANCH  15  17
ENDBRANCH   1  13
BRANCH   1  24
ATOM     24  CB  LEU A   2      61.177  15.823  17.941  0.00  0.00    +0.029 C 
BRANCH  24  25
ATOM     25  CG  LEU A   2      62.567  16.116  18.359  0.00  0.00    +0.002 C 
ATOM     26  CD2 LEU A   2      62.717  16.166  19.900  0.00  0.00    +0.000 C 
ATOM     27  CD1 LEU A   2      62.998  17.446  17.773  0.00  0.00    +0.000 C 
ENDBRANCH  24  25
ENDBRANCH   1  24
TORSDOF 12
REMARK  Name = ../refined-set-2016/3b25/3b25_pocket.pdb
REMARK  208 active torsions:
REMARK  status: ('A' for Active; 'I' for Inactive)
REMARK    1  A    between atoms: _1  and  _3
REMARK    2  A    between atoms: _3  and  _4
REMARK    3  A    between atoms: _3  and  _6
REMARK    4  A    between atoms: _6  and  _7
REMARK    5  A    between atoms: _13  and  _15
REMARK    6  A    between atoms: _15  and  _16
REMARK    7  A    between atoms: _15  and  _18
REMARK    8  A    between atoms: _18  and  _19
REMARK    9  A    between atoms: _19  and  _20
REMARK   10  A    between atoms: _23  and  _25
REMARK   11  A    between atoms: _25  and  _26
REMARK   12  A    between atoms: _25  and  _28
REMARK   13  A    between atoms: _28  and  _29
REMARK   14  A    between atoms: _32  and  _34
REMARK   15  A    between atoms: _34  and  _35
REMARK   16  A    between atoms: _34  and  _37
REMARK   17  A    between atoms: _37  and  _38
REMARK   18  A    between atoms: _41  and  _43
REMARK   19  A    between atoms: _43  and  _44
REMARK   20  A    between atoms: _43  and  _46
REMARK   21  A    between atoms: _46  and  _47
REMARK   22  A    between atoms: _49  and  _51
REMARK   23  A    between atoms: _51  and  _52
REMARK   24  A    between atoms: _51  and  _54
REMARK   25  A    between atoms: _54  and  _55
REMARK   26  A    between atoms: _60  and  _62
REMARK   27  A    between atoms: _62  and  _63
REMARK   28  A    between atoms: _62  and  _65
REMARK   29  A    between atoms: _65  and  _66
REMARK   30  A    between atoms: _68  and  _70
REMARK   31  A    between atoms: _70  and  _71
REMARK   32  A    between atoms: _70  and  _73
REMARK   33  A    between atoms: _73  and  _74
REMARK   34  A    between atoms: _76  and  _78
REMARK   35  A    between atoms: _78  and  _79
REMARK   36  A    between atoms: _78  and  _81
REMARK   37  A    between atoms: _81  and  _82
REMARK   38  A    between atoms: _85  and  _87
REMARK   39  A    between atoms: _87  and  _88
REMARK   40  A    between atoms: _91  and  _93
REMARK   41  A    between atoms: _93  and  _94
REMARK   42  A    between atoms: _93  and  _96
REMARK   43  A    between atoms: _96  and  _97
REMARK   44  A    between atoms: _100  and  _102
REMARK   45  A    between atoms: _102  and  _103
REMARK   46  A    between atoms: _102  and  _105
REMARK   47  A    between atoms: _105  and  _106
REMARK   48  A    between atoms: _106  and  _107
REMARK   49  A    between atoms: _107  and  _108
REMARK   50  A    between atoms: _108  and  _109
REMARK   51  A    between atoms: _113  and  _115
REMARK   52  A    between atoms: _115  and  _116
REMARK   53  A    between atoms: _115  and  _118
REMARK   54  A    between atoms: _118  and  _119
REMARK   55  A    between atoms: _122  and  _124
REMARK   56  A    between atoms: _124  and  _125
REMARK   57  A    between atoms: _124  and  _127
REMARK   58  A    between atoms: _127  and  _128
REMARK   59  A    between atoms: _131  and  _133
REMARK   60  A    between atoms: _133  and  _134
REMARK   61  A    between atoms: _133  and  _136
REMARK   62  A    between atoms: _136  and  _137
REMARK   63  A    between atoms: _140  and  _142
REMARK   64  A    between atoms: _142  and  _143
REMARK   65  A    between atoms: _142  and  _145
REMARK   66  A    between atoms: _148  and  _150
REMARK   67  A    between atoms: _150  and  _151
REMARK   68  A    between atoms: _150  and  _153
REMARK   69  A    between atoms: _153  and  _154
REMARK   70  A    between atoms: _157  and  _159
REMARK   71  A    between atoms: _159  and  _160
REMARK   72  A    between atoms: _159  and  _162
REMARK   73  A    between atoms: _162  and  _163
REMARK   74  A    between atoms: _166  and  _168
REMARK   75  A    between atoms: _168  and  _169
REMARK   76  A    between atoms: _171  and  _173
REMARK   77  A    between atoms: _173  and  _174
REMARK   78  A    between atoms: _173  and  _176
REMARK   79  A    between atoms: _176  and  _177
REMARK   80  A    between atoms: _180  and  _182
REMARK   81  A    between atoms: _182  and  _183
REMARK   82  A    between atoms: _185  and  _187
REMARK   83  A    between atoms: _187  and  _188
REMARK   84  A    between atoms: _187  and  _190
REMARK   85  A    between atoms: _190  and  _191
REMARK   86  A    between atoms: _191  and  _192
REMARK   87  A    between atoms: _194  and  _196
REMARK   88  A    between atoms: _196  and  _197
REMARK   89  A    between atoms: _196  and  _199
REMARK   90  A    between atoms: _199  and  _200
REMARK   91  A    between atoms: _203  and  _205
REMARK   92  A    between atoms: _205  and  _206
REMARK   93  A    between atoms: _205  and  _208
REMARK   94  A    between atoms: _208  and  _209
REMARK   95  A    between atoms: _212  and  _214
REMARK   96  A    between atoms: _214  and  _215
REMARK   97  A    between atoms: _214  and  _217
REMARK   98  A    between atoms: _217  and  _218
REMARK   99  A    between atoms: _221  and  _223
REMARK  100  A    between atoms: _223  and  _224
REMARK  101  A    between atoms: _223  and  _226
REMARK  102  A    between atoms: _226  and  _227
REMARK  103  A    between atoms: _230  and  _232
REMARK  104  A    between atoms: _232  and  _233
REMARK  105  A    between atoms: _232  and  _235
REMARK  106  A    between atoms: _235  and  _236
REMARK  107  A    between atoms: _241  and  _243
REMARK  108  A    between atoms: _243  and  _244
REMARK  109  A    between atoms: _243  and  _246
REMARK  110  A    between atoms: _246  and  _247
REMARK  111  A    between atoms: _250  and  _252
REMARK  112  A    between atoms: _252  and  _253
REMARK  113  A    between atoms: _255  and  _257
REMARK  114  A    between atoms: _257  and  _258
REMARK  115  A    between atoms: _257  and  _260
REMARK  116  A    between atoms: _260  and  _261
REMARK  117  A    between atoms: _264  and  _266
REMARK  118  A    between atoms: _266  and  _267
REMARK  119  A    between atoms: _270  and  _272
REMARK  120  A    between atoms: _272  and  _273
REMARK  121  A    between atoms: _275  and  _277
REMARK  122  A    between atoms: _277  and  _278
REMARK  123  A    between atoms: _277  and  _280
REMARK  124  A    between atoms: _283  and  _285
REMARK  125  A    between atoms: _285  and  _286
REMARK  126  A    between atoms: _288  and  _290
REMARK  127  A    between atoms: _290  and  _291
REMARK  128  A    between atoms: _290  and  _293
REMARK  129  A    between atoms: _293  and  _294
REMARK  130  A    between atoms: _300  and  _302
REMARK  131  A    between atoms: _302  and  _303
REMARK  132  A    between atoms: _302  and  _305
REMARK  133  A    between atoms: _305  and  _306
REMARK  134  A    between atoms: _311  and  _312
REMARK  135  A    between atoms: _314  and  _316
REMARK  136  A    between atoms: _316  and  _317
REMARK  137  A    between atoms: _316  and  _319
REMARK  138  A    between atoms: _319  and  _320
REMARK  139  A    between atoms: _325  and  _326
REMARK  140  A    between atoms: _328  and  _330
REMARK  141  A    between atoms: _330  and  _331
REMARK  142  A    between atoms: _330  and  _333
REMARK  143  A    between atoms: _336  and  _338
REMARK  144  A    between atoms: _338  and  _339
REMARK  145  A    between atoms: _338  and  _341
REMARK  146  A    between atoms: _341  and  _342
REMARK  147  A    between atoms: _345  and  _347
REMARK  148  A    between atoms: _347  and  _348
REMARK  149  A    between atoms: _347  and  _350
REMARK  150  A    between atoms: _353  and  _355
REMARK  151  A    between atoms: _355  and  _356
REMARK  152  A    between atoms: _355  and  _358
REMARK  153  A    between atoms: _358  and  _359
REMARK  154  A    between atoms: _362  and  _364
REMARK  155  A    between atoms: _364  and  _365
REMARK  156  A    between atoms: _364  and  _367
REMARK  157  A    between atoms: _367  and  _368
REMARK  158  A    between atoms: _371  and  _373
REMARK  159  A    between atoms: _373  and  _374
REMARK  160  A    between atoms: _373  and  _376
REMARK  161  A    between atoms: _376  and  _377
REMARK  162  A    between atoms: _377  and  _378
REMARK  163  A    between atoms: _378  and  _379
REMARK  164  A    between atoms: _379  and  _380
REMARK  165  A    between atoms: _384  and  _386
REMARK  166  A    between atoms: _386  and  _387
REMARK  167  A    between atoms: _386  and  _389
REMARK  168  A    between atoms: _389  and  _390
REMARK  169  A    between atoms: _395  and  _397
REMARK  170  A    between atoms: _397  and  _398
REMARK  171  A    between atoms: _397  and  _400
REMARK  172  A    between atoms: _400  and  _401
REMARK  173  A    between atoms: _411  and  _413
REMARK  174  A    between atoms: _413  and  _414
REMARK  175  A    between atoms: _413  and  _416
REMARK  176  A    between atoms: _416  and  _417
REMARK  177  A    between atoms: _417  and  _418
REMARK  178  A    between atoms: _421  and  _423
REMARK  179  A    between atoms: _423  and  _424
REMARK  180  A    between atoms: _423  and  _426
REMARK  181  A    between atoms: _426  and  _427
REMARK  182  A    between atoms: _429  and  _431
REMARK  183  A    between atoms: _431  and  _432
REMARK  184  A    between atoms: _431  and  _434
REMARK  185  A    between atoms: _434  and  _435
REMARK  186  A    between atoms: _441  and  _443
REMARK  187  A    between atoms: _443  and  _444
REMARK  188  A    between atoms: _443  and  _446
REMARK  189  A    between atoms: _446  and  _447
REMARK  190  A    between atoms: _450  and  _452
REMARK  191  A    between atoms: _452  and  _453
REMARK  192  A    between atoms: _452  and  _455
REMARK  193  A    between atoms: _458  and  _460
REMARK  194  A    between atoms: _460  and  _461
REMARK  195  A    between atoms: _463  and  _465
REMARK  196  A    between atoms: _465  and  _466
REMARK  197  A    between atoms: _465  and  _468
REMARK  198  A    between atoms: _468  and  _469
REMARK  199  A    between atoms: _472  and  _474
REMARK  200  A    between atoms: _474  and  _475
REMARK  201  A    between atoms: _474  and  _477
REMARK  202  A    between atoms: _477  and  _478
REMARK  203  A    between atoms: _478  and  _479
REMARK  204  A    between atoms: _479  and  _480
REMARK  205  A    between atoms: _480  and  _481
REMARK  206  A    between atoms: _485  and  _487
REMARK  207  A    between atoms: _487  and  _488
REMARK  208  A    between atoms: _487  and  _490
REMARK                            x       y       z     vdW  Elec       q    Type
REMARK                         _______ _______ _______ _____ _____    ______ ____
ROOT
ATOM      1  C   ASN A   1      56.948   8.520  19.289  0.00  0.00    +0.239 C 
ATOM      2  O   ASN A   1      56.419   7.586  19.893  0.00  0.00    -0.274 OA
ATOM      3  N   LEU A   2      57.773   9.406  19.872  0.00  0.00    -0.297 N 
ATOM      4  H   LEU A   2      58.156  10.196  19.315  0.00  0.00    +0.150 HD
ENDROOT
BRANCH   1   5
ATOM      5  CA  ASN A   1      56.661   8.707  17.811  0.00  0.00    +0.154 C 
BRANCH   5   6
ATOM      6  N   ASN A   1      56.326  10.080  17.405  0.00  0.00    -0.238 NA
ATOM      7  H   ASN A   1      56.886  10.525  16.650  0.00  0.00    +0.142 HD
ENDBRANCH   5   6
BRANCH   5   8
ATOM      8  CB  ASN A   1      57.780   8.102  16.952  0.00  0.00    +0.111 C 
BRANCH   8   9
ATOM      9  CG  ASN A   1      57.596   8.216  15.451  0.00  0.00    +0.221 C 
ATOM     10  ND2 ASN A   1      56.364   8.182  14.973  0.00  0.00    -0.329 N 
ATOM     11 HD21 ASN A   1      55.557   8.086  15.622  0.00  0.00    +0.145 HD
ATOM     12 HD22 ASN A   1      56.202   8.251  13.948  0.00  0.00    +0.145 HD
ATOM     13  OD1 ASN A   1      58.569   8.329  14.698  0.00  0.00    -0.275 OA
ENDBRANCH   8   9
ENDBRANCH   5   8
ENDBRANCH   1   5
BRANCH   3  14
ATOM     14  CA  LEU A   2      58.135   9.271  21.271  0.00  0.00    +0.149 C 
BRANCH  14  15
ATOM     15  C   LEU A   2      57.022   9.590  22.279  0.00  0.00    +0.241 C 
ATOM     16  O   LEU A   2      56.957   8.948  23.328  0.00  0.00    -0.273 OA
ATOM     17  N   GLY A   3      56.102  10.480  21.901  0.00  0.00    -0.296 N 
ATOM     18  H   GLY A   3      56.230  10.954  20.984  0.00  0.00    +0.150 HD
BRANCH  17  19
ATOM     19  CA  GLY A   3      54.923  10.831  22.697  0.00  0.00    +0.163 C 
BRANCH  19  20
ATOM     20  C   GLY A   3      53.863   9.739  22.635  0.00  0.00    +0.229 C 
ATOM     21  O   GLY A   3      53.126   9.538  23.604  0.00  0.00    -0.286 OA
ENDBRANCH  19  20
ENDBRANCH  17  19
ENDBRANCH  14  15
BRANCH  14  22
ATOM     22  CB  LEU A   2      59.521   9.859  21.592  0.00  0.00    +0.029 C 
BRANCH  22  23
ATOM     23  CG  LEU A   2      60.693   9.242  20.779  0.00  0.00    +0.002 C 
ATOM     24  CD2 LEU A   2      62.021   9.821  21.195  0.00  0.00    +0.000 C 
ATOM     25  CD1 LEU A   2      60.768   7.718  20.947  0.00  0.00    +0.000 C 
ENDBRANCH  22  23
ENDBRANCH  14  22
ENDBRANCH   3  14
TORSDOF 10
REMARK  Name = ../refined-set-2016/3b25/3b25_pocket.pdb
REMARK  208 active torsions:
REMARK  status: ('A' for Active; 'I' for Inactive)
REMARK    1  A    between atoms: _1  and  _3
REMARK    2  A    between atoms: _3  and  _4
REMARK    3  A    between atoms: _3  and  _6
REMARK    4  A    between atoms: _6  and  _7
REMARK    5  A    between atoms: _13  and  _15
REMARK    6  A    between atoms: _15  and  _16
REMARK    7  A    between atoms: _15  and  _18
REMARK    8  A    between atoms: _18  and  _19
REMARK    9  A    between atoms: _19  and  _20
REMARK   10  A    between atoms: _23  and  _25
REMARK   11  A    between atoms: _25  and  _26
REMARK   12  A    between atoms: _25  and  _28
REMARK   13  A    between atoms: _28  and  _29
REMARK   14  A    between atoms: _32  and  _34
REMARK   15  A    between atoms: _34  and  _35
REMARK   16  A    between atoms: _34  and  _37
REMARK   17  A    between atoms: _37  and  _38
REMARK   18  A    between atoms: _41  and  _43
REMARK   19  A    between atoms: _43  and  _44
REMARK   20  A    between atoms: _43  and  _46
REMARK   21  A    between atoms: _46  and  _47
REMARK   22  A    between atoms: _49  and  _51
REMARK   23  A    between atoms: _51  and  _52
REMARK   24  A    between atoms: _51  and  _54
REMARK   25  A    between atoms: _54  and  _55
REMARK   26  A    between atoms: _60  and  _62
REMARK   27  A    between atoms: _62  and  _63
REMARK   28  A    between atoms: _62  and  _65
REMARK   29  A    between atoms: _65  and  _66
REMARK   30  A    between atoms: _68  and  _70
REMARK   31  A    between atoms: _70  and  _71
REMARK   32  A    between atoms: _70  and  _73
REMARK   33  A    between atoms: _73  and  _74
REMARK   34  A    between atoms: _76  and  _78
REMARK   35  A    between atoms: _78  and  _79
REMARK   36  A    between atoms: _78  and  _81
REMARK   37  A    between atoms: _81  and  _82
REMARK   38  A    between atoms: _85  and  _87
REMARK   39  A    between atoms: _87  and  _88
REMARK   40  A    between atoms: _91  and  _93
REMARK   41  A    between atoms: _93  and  _94
REMARK   42  A    between atoms: _93  and  _96
REMARK   43  A    between atoms: _96  and  _97
REMARK   44  A    between atoms: _100  and  _102
REMARK   45  A    between atoms: _102  and  _103
REMARK   46  A    between atoms: _102  and  _105
REMARK   47  A    between atoms: _105  and  _106
REMARK   48  A    between atoms: _106  and  _107
REMARK   49  A    between atoms: _107  and  _108
REMARK   50  A    between atoms: _108  and  _109
REMARK   51  A    between atoms: _113  and  _115
REMARK   52  A    between atoms: _115  and  _116
REMARK   53  A    between atoms: _115  and  _118
REMARK   54  A    between atoms: _118  and  _119
REMARK   55  A    between atoms: _122  and  _124
REMARK   56  A    between atoms: _124  and  _125
REMARK   57  A    between atoms: _124  and  _127
REMARK   58  A    between atoms: _127  and  _128
REMARK   59  A    between atoms: _131  and  _133
REMARK   60  A    between atoms: _133  and  _134
REMARK   61  A    between atoms: _133  and  _136
REMARK   62  A    between atoms: _136  and  _137
REMARK   63  A    between atoms: _140  and  _142
REMARK   64  A    between atoms: _142  and  _143
REMARK   65  A    between atoms: _142  and  _145
REMARK   66  A    between atoms: _148  and  _150
REMARK   67  A    between atoms: _150  and  _151
REMARK   68  A    between atoms: _150  and  _153
REMARK   69  A    between atoms: _153  and  _154
REMARK   70  A    between atoms: _157  and  _159
REMARK   71  A    between atoms: _159  and  _160
REMARK   72  A    between atoms: _159  and  _162
REMARK   73  A    between atoms: _162  and  _163
REMARK   74  A    between atoms: _166  and  _168
REMARK   75  A    between atoms: _168  and  _169
REMARK   76  A    between atoms: _171  and  _173
REMARK   77  A    between atoms: _173  and  _174
REMARK   78  A    between atoms: _173  and  _176
REMARK   79  A    between atoms: _176  and  _177
REMARK   80  A    between atoms: _180  and  _182
REMARK   81  A    between atoms: _182  and  _183
REMARK   82  A    between atoms: _185  and  _187
REMARK   83  A    between atoms: _187  and  _188
REMARK   84  A    between atoms: _187  and  _190
REMARK   85  A    between atoms: _190  and  _191
REMARK   86  A    between atoms: _191  and  _192
REMARK   87  A    between atoms: _194  and  _196
REMARK   88  A    between atoms: _196  and  _197
REMARK   89  A    between atoms: _196  and  _199
REMARK   90  A    between atoms: _199  and  _200
REMARK   91  A    between atoms: _203  and  _205
REMARK   92  A    between atoms: _205  and  _206
REMARK   93  A    between atoms: _205  and  _208
REMARK   94  A    between atoms: _208  and  _209
REMARK   95  A    between atoms: _212  and  _214
REMARK   96  A    between atoms: _214  and  _215
REMARK   97  A    between atoms: _214  and  _217
REMARK   98  A    between atoms: _217  and  _218
REMARK   99  A    between atoms: _221  and  _223
REMARK  100  A    between atoms: _223  and  _224
REMARK  101  A    between atoms: _223  and  _226
REMARK  102  A    between atoms: _226  and  _227
REMARK  103  A    between atoms: _230  and  _232
REMARK  104  A    between atoms: _232  and  _233
REMARK  105  A    between atoms: _232  and  _235
REMARK  106  A    between atoms: _235  and  _236
REMARK  107  A    between atoms: _241  and  _243
REMARK  108  A    between atoms: _243  and  _244
REMARK  109  A    between atoms: _243  and  _246
REMARK  110  A    between atoms: _246  and  _247
REMARK  111  A    between atoms: _250  and  _252
REMARK  112  A    between atoms: _252  and  _253
REMARK  113  A    between atoms: _255  and  _257
REMARK  114  A    between atoms: _257  and  _258
REMARK  115  A    between atoms: _257  and  _260
REMARK  116  A    between atoms: _260  and  _261
REMARK  117  A    between atoms: _264  and  _266
REMARK  118  A    between atoms: _266  and  _267
REMARK  119  A    between atoms: _270  and  _272
REMARK  120  A    between atoms: _272  and  _273
REMARK  121  A    between atoms: _275  and  _277
REMARK  122  A    between atoms: _277  and  _278
REMARK  123  A    between atoms: _277  and  _280
REMARK  124  A    between atoms: _283  and  _285
REMARK  125  A    between atoms: _285  and  _286
REMARK  126  A    between atoms: _288  and  _290
REMARK  127  A    between atoms: _290  and  _291
REMARK  128  A    between atoms: _290  and  _293
REMARK  129  A    between atoms: _293  and  _294
REMARK  130  A    between atoms: _300  and  _302
REMARK  131  A    between atoms: _302  and  _303
REMARK  132  A    between atoms: _302  and  _305
REMARK  133  A    between atoms: _305  and  _306
REMARK  134  A    between atoms: _311  and  _312
REMARK  135  A    between atoms: _314  and  _316
REMARK  136  A    between atoms: _316  and  _317
REMARK  137  A    between atoms: _316  and  _319
REMARK  138  A    between atoms: _319  and  _320
REMARK  139  A    between atoms: _325  and  _326
REMARK  140  A    between atoms: _328  and  _330
REMARK  141  A    between atoms: _330  and  _331
REMARK  142  A    between atoms: _330  and  _333
REMARK  143  A    between atoms: _336  and  _338
REMARK  144  A    between atoms: _338  and  _339
REMARK  145  A    between atoms: _338  and  _341
REMARK  146  A    between atoms: _341  and  _342
REMARK  147  A    between atoms: _345  and  _347
REMARK  148  A    between atoms: _347  and  _348
REMARK  149  A    between atoms: _347  and  _350
REMARK  150  A    between atoms: _353  and  _355
REMARK  151  A    between atoms: _355  and  _356
REMARK  152  A    between atoms: _355  and  _358
REMARK  153  A    between atoms: _358  and  _359
REMARK  154  A    between atoms: _362  and  _364
REMARK  155  A    between atoms: _364  and  _365
REMARK  156  A    between atoms: _364  and  _367
REMARK  157  A    between atoms: _367  and  _368
REMARK  158  A    between atoms: _371  and  _373
REMARK  159  A    between atoms: _373  and  _374
REMARK  160  A    between atoms: _373  and  _376
REMARK  161  A    between atoms: _376  and  _377
REMARK  162  A    between atoms: _377  and  _378
REMARK  163  A    between atoms: _378  and  _379
REMARK  164  A    between atoms: _379  and  _380
REMARK  165  A    between atoms: _384  and  _386
REMARK  166  A    between atoms: _386  and  _387
REMARK  167  A    between atoms: _386  and  _389
REMARK  168  A    between atoms: _389  and  _390
REMARK  169  A    between atoms: _395  and  _397
REMARK  170  A    between atoms: _397  and  _398
REMARK  171  A    between atoms: _397  and  _400
REMARK  172  A    between atoms: _400  and  _401
REMARK  173  A    between atoms: _411  and  _413
REMARK  174  A    between atoms: _413  and  _414
REMARK  175  A    between atoms: _413  and  _416
REMARK  176  A    between atoms: _416  and  _417
REMARK  177  A    between atoms: _417  and  _418
REMARK  178  A    between atoms: _421  and  _423
REMARK  179  A    between atoms: _423  and  _424
REMARK  180  A    between atoms: _423  and  _426
REMARK  181  A    between atoms: _426  and  _427
REMARK  182  A    between atoms: _429  and  _431
REMARK  183  A    between atoms: _431  and  _432
REMARK  184  A    between atoms: _431  and  _434
REMARK  185  A    between atoms: _434  and  _435
REMARK  186  A    between atoms: _441  and  _443
REMARK  187  A    between atoms: _443  and  _444
REMARK  188  A    between atoms: _443  and  _446
REMARK  189  A    between atoms: _446  and  _447
REMARK  190  A    between atoms: _450  and  _452
REMARK  191  A    between atoms: _452  and  _453
REMARK  192  A    between atoms: _452  and  _455
REMARK  193  A    between atoms: _458  and  _460
REMARK  194  A    between atoms: _460  and  _461
REMARK  195  A    between atoms: _463  and  _465
REMARK  196  A    between atoms: _465  and  _466
REMARK  197  A    between atoms: _465  and  _468
REMARK  198  A    between atoms: _468  and  _469
REMARK  199  A    between atoms: _472  and  _474
REMARK  200  A    between atoms: _474  and  _475
REMARK  201  A    between atoms: _474  and  _477
REMARK  202  A    between atoms: _477  and  _478
REMARK  203  A    between atoms: _478  and  _479
REMARK  204  A    between atoms: _479  and  _480
REMARK  205  A    between atoms: _480  and  _481
REMARK  206  A    between atoms: _485  and  _487
REMARK  207  A    between atoms: _487  and  _488
REMARK  208  A    between atoms: _487  and  _490
REMARK                            x       y       z     vdW  Elec       q    Type
REMARK                         _______ _______ _______ _____ _____    ______ ____
ROOT
ATOM      1  C   ILE A   1      54.855   5.806  24.676  0.00  0.00    +0.238 C 
ATOM      2  O   ILE A   1      54.407   4.970  25.463  0.00  0.00    -0.274 OA
ATOM      3  N   ALA A   2      55.087   7.093  25.000  0.00  0.00    -0.298 N 
ATOM      4  H   ALA A   2      55.413   7.718  24.236  0.00  0.00    +0.150 HD
ENDROOT
BRANCH   3   5
ATOM      5  CA  ALA A   2      54.925   7.696  26.323  0.00  0.00    +0.137 C 
ATOM      6  CB  ALA A   2      55.409   9.138  26.294  0.00  0.00    +0.030 C 
BRANCH   5   7
ATOM      7  C   ALA A   2      53.500   7.621  26.896  0.00  0.00    +0.227 C 
ATOM      8  O   ALA A   2      53.346   7.619  28.118  0.00  0.00    -0.286 OA
ENDBRANCH   5   7
ENDBRANCH   3   5
BRANCH   1   9
ATOM      9  CA  ILE A   1      55.124   5.419  23.222  0.00  0.00    +0.145 C 
BRANCH   9  10
ATOM     10  N   ILE A   1      54.560   6.452  22.344  0.00  0.00    -0.238 NA
ATOM     11  H   ILE A   1      55.217   6.985  21.740  0.00  0.00    +0.142 HD
ENDBRANCH   9  10
BRANCH   9  12
ATOM     12  CB  ILE A   1      56.651   5.204  22.945  0.00  0.00    +0.025 C 
ATOM     13  CG2 ILE A   1      57.354   4.378  24.043  0.00  0.00    +0.002 C 
BRANCH  12  14
ATOM     14  CG1 ILE A   1      56.933   4.633  21.523  0.00  0.00    +0.002 C 
ATOM     15  CD1 ILE A   1      56.511   3.165  21.232  0.00  0.00    +0.000 C 
ENDBRANCH  12  14
ENDBRANCH   9  12
ENDBRANCH   1   9
TORSDOF 6
REMARK  Name = ../refined-set-2016/3b25/3b25_pocket.pdb
REMARK  208 active torsions:
REMARK  status: ('A' for Active; 'I' for Inactive)
REMARK    1  A    between atoms: _1  and  _3
REMARK    2  A    between atoms: _3  and  _4
REMARK    3  A    between atoms: _3  and  _6
REMARK    4  A    between atoms: _6  and  _7
REMARK    5  A    between atoms: _13  and  _15
REMARK    6  A    between atoms: _15  and  _16
REMARK    7  A    between atoms: _15  and  _18
REMARK    8  A    between atoms: _18  and  _19
REMARK    9  A    between atoms: _19  and  _20
REMARK   10  A    between atoms: _23  and  _25
REMARK   11  A    between atoms: _25  and  _26
REMARK   12  A    between atoms: _25  and  _28
REMARK   13  A    between atoms: _28  and  _29
REMARK   14  A    between atoms: _32  and  _34
REMARK   15  A    between atoms: _34  and  _35
REMARK   16  A    between atoms: _34  and  _37
REMARK   17  A    between atoms: _37  and  _38
REMARK   18  A    between atoms: _41  and  _43
REMARK   19  A    between atoms: _43  and  _44
REMARK   20  A    between atoms: _43  and  _46
REMARK   21  A    between atoms: _46  and  _47
REMARK   22  A    between atoms: _49  and  _51
REMARK   23  A    between atoms: _51  and  _52
REMARK   24  A    between atoms: _51  and  _54
REMARK   25  A    between atoms: _54  and  _55
REMARK   26  A    between atoms: _60  and  _62
REMARK   27  A    between atoms: _62  and  _63
REMARK   28  A    between atoms: _62  and  _65
REMARK   29  A    between atoms: _65  and  _66
REMARK   30  A    between atoms: _68  and  _70
REMARK   31  A    between atoms: _70  and  _71
REMARK   32  A    between atoms: _70  and  _73
REMARK   33  A    between atoms: _73  and  _74
REMARK   34  A    between atoms: _76  and  _78
REMARK   35  A    between atoms: _78  and  _79
REMARK   36  A    between atoms: _78  and  _81
REMARK   37  A    between atoms: _81  and  _82
REMARK   38  A    between atoms: _85  and  _87
REMARK   39  A    between atoms: _87  and  _88
REMARK   40  A    between atoms: _91  and  _93
REMARK   41  A    between atoms: _93  and  _94
REMARK   42  A    between atoms: _93  and  _96
REMARK   43  A    between atoms: _96  and  _97
REMARK   44  A    between atoms: _100  and  _102
REMARK   45  A    between atoms: _102  and  _103
REMARK   46  A    between atoms: _102  and  _105
REMARK   47  A    between atoms: _105  and  _106
REMARK   48  A    between atoms: _106  and  _107
REMARK   49  A    between atoms: _107  and  _108
REMARK   50  A    between atoms: _108  and  _109
REMARK   51  A    between atoms: _113  and  _115
REMARK   52  A    between atoms: _115  and  _116
REMARK   53  A    between atoms: _115  and  _118
REMARK   54  A    between atoms: _118  and  _119
REMARK   55  A    between atoms: _122  and  _124
REMARK   56  A    between atoms: _124  and  _125
REMARK   57  A    between atoms: _124  and  _127
REMARK   58  A    between atoms: _127  and  _128
REMARK   59  A    between atoms: _131  and  _133
REMARK   60  A    between atoms: _133  and  _134
REMARK   61  A    between atoms: _133  and  _136
REMARK   62  A    between atoms: _136  and  _137
REMARK   63  A    between atoms: _140  and  _142
REMARK   64  A    between atoms: _142  and  _143
REMARK   65  A    between atoms: _142  and  _145
REMARK   66  A    between atoms: _148  and  _150
REMARK   67  A    between atoms: _150  and  _151
REMARK   68  A    between atoms: _150  and  _153
REMARK   69  A    between atoms: _153  and  _154
REMARK   70  A    between atoms: _157  and  _159
REMARK   71  A    between atoms: _159  and  _160
REMARK   72  A    between atoms: _159  and  _162
REMARK   73  A    between atoms: _162  and  _163
REMARK   74  A    between atoms: _166  and  _168
REMARK   75  A    between atoms: _168  and  _169
REMARK   76  A    between atoms: _171  and  _173
REMARK   77  A    between atoms: _173  and  _174
REMARK   78  A    between atoms: _173  and  _176
REMARK   79  A    between atoms: _176  and  _177
REMARK   80  A    between atoms: _180  and  _182
REMARK   81  A    between atoms: _182  and  _183
REMARK   82  A    between atoms: _185  and  _187
REMARK   83  A    between atoms: _187  and  _188
REMARK   84  A    between atoms: _187  and  _190
REMARK   85  A    between atoms: _190  and  _191
REMARK   86  A    between atoms: _191  and  _192
REMARK   87  A    between atoms: _194  and  _196
REMARK   88  A    between atoms: _196  and  _197
REMARK   89  A    between atoms: _196  and  _199
REMARK   90  A    between atoms: _199  and  _200
REMARK   91  A    between atoms: _203  and  _205
REMARK   92  A    between atoms: _205  and  _206
REMARK   93  A    between atoms: _205  and  _208
REMARK   94  A    between atoms: _208  and  _209
REMARK   95  A    between atoms: _212  and  _214
REMARK   96  A    between atoms: _214  and  _215
REMARK   97  A    between atoms: _214  and  _217
REMARK   98  A    between atoms: _217  and  _218
REMARK   99  A    between atoms: _221  and  _223
REMARK  100  A    between atoms: _223  and  _224
REMARK  101  A    between atoms: _223  and  _226
REMARK  102  A    between atoms: _226  and  _227
REMARK  103  A    between atoms: _230  and  _232
REMARK  104  A    between atoms: _232  and  _233
REMARK  105  A    between atoms: _232  and  _235
REMARK  106  A    between atoms: _235  and  _236
REMARK  107  A    between atoms: _241  and  _243
REMARK  108  A    between atoms: _243  and  _244
REMARK  109  A    between atoms: _243  and  _246
REMARK  110  A    between atoms: _246  and  _247
REMARK  111  A    between atoms: _250  and  _252
REMARK  112  A    between atoms: _252  and  _253
REMARK  113  A    between atoms: _255  and  _257
REMARK  114  A    between atoms: _257  and  _258
REMARK  115  A    between atoms: _257  and  _260
REMARK  116  A    between atoms: _260  and  _261
REMARK  117  A    between atoms: _264  and  _266
REMARK  118  A    between atoms: _266  and  _267
REMARK  119  A    between atoms: _270  and  _272
REMARK  120  A    between atoms: _272  and  _273
REMARK  121  A    between atoms: _275  and  _277
REMARK  122  A    between atoms: _277  and  _278
REMARK  123  A    between atoms: _277  and  _280
REMARK  124  A    between atoms: _283  and  _285
REMARK  125  A    between atoms: _285  and  _286
REMARK  126  A    between atoms: _288  and  _290
REMARK  127  A    between atoms: _290  and  _291
REMARK  128  A    between atoms: _290  and  _293
REMARK  129  A    between atoms: _293  and  _294
REMARK  130  A    between atoms: _300  and  _302
REMARK  131  A    between atoms: _302  and  _303
REMARK  132  A    between atoms: _302  and  _305
REMARK  133  A    between atoms: _305  and  _306
REMARK  134  A    between atoms: _311  and  _312
REMARK  135  A    between atoms: _314  and  _316
REMARK  136  A    between atoms: _316  and  _317
REMARK  137  A    between atoms: _316  and  _319
REMARK  138  A    between atoms: _319  and  _320
REMARK  139  A    between atoms: _325  and  _326
REMARK  140  A    between atoms: _328  and  _330
REMARK  141  A    between atoms: _330  and  _331
REMARK  142  A    between atoms: _330  and  _333
REMARK  143  A    between atoms: _336  and  _338
REMARK  144  A    between atoms: _338  and  _339
REMARK  145  A    between atoms: _338  and  _341
REMARK  146  A    between atoms: _341  and  _342
REMARK  147  A    between atoms: _345  and  _347
REMARK  148  A    between atoms: _347  and  _348
REMARK  149  A    between atoms: _347  and  _350
REMARK  150  A    between atoms: _353  and  _355
REMARK  151  A    between atoms: _355  and  _356
REMARK  152  A    between atoms: _355  and  _358
REMARK  153  A    between atoms: _358  and  _359
REMARK  154  A    between atoms: _362  and  _364
REMARK  155  A    between atoms: _364  and  _365
REMARK  156  A    between atoms: _364  and  _367
REMARK  157  A    between atoms: _367  and  _368
REMARK  158  A    between atoms: _371  and  _373
REMARK  159  A    between atoms: _373  and  _374
REMARK  160  A    between atoms: _373  and  _376
REMARK  161  A    between atoms: _376  and  _377
REMARK  162  A    between atoms: _377  and  _378
REMARK  163  A    between atoms: _378  and  _379
REMARK  164  A    between atoms: _379  and  _380
REMARK  165  A    between atoms: _384  and  _386
REMARK  166  A    between atoms: _386  and  _387
REMARK  167  A    between atoms: _386  and  _389
REMARK  168  A    between atoms: _389  and  _390
REMARK  169  A    between atoms: _395  and  _397
REMARK  170  A    between atoms: _397  and  _398
REMARK  171  A    between atoms: _397  and  _400
REMARK  172  A    between atoms: _400  and  _401
REMARK  173  A    between atoms: _411  and  _413
REMARK  174  A    between atoms: _413  and  _414
REMARK  175  A    between atoms: _413  and  _416
REMARK  176  A    between atoms: _416  and  _417
REMARK  177  A    between atoms: _417  and  _418
REMARK  178  A    between atoms: _421  and  _423
REMARK  179  A    between atoms: _423  and  _424
REMARK  180  A    between atoms: _423  and  _426
REMARK  181  A    between atoms: _426  and  _427
REMARK  182  A    between atoms: _429  and  _431
REMARK  183  A    between atoms: _431  and  _432
REMARK  184  A    between atoms: _431  and  _434
REMARK  185  A    between atoms: _434  and  _435
REMARK  186  A    between atoms: _441  and  _443
REMARK  187  A    between atoms: _443  and  _444
REMARK  188  A    between atoms: _443  and  _446
REMARK  189  A    between atoms: _446  and  _447
REMARK  190  A    between atoms: _450  and  _452
REMARK  191  A    between atoms: _452  and  _453
REMARK  192  A    between atoms: _452  and  _455
REMARK  193  A    between atoms: _458  and  _460
REMARK  194  A    between atoms: _460  and  _461
REMARK  195  A    between atoms: _463  and  _465
REMARK  196  A    between atoms: _465  and  _466
REMARK  197  A    between atoms: _465  and  _468
REMARK  198  A    between atoms: _468  and  _469
REMARK  199  A    between atoms: _472  and  _474
REMARK  200  A    between atoms: _474  and  _475
REMARK  201  A    between atoms: _474  and  _477
REMARK  202  A    between atoms: _477  and  _478
REMARK  203  A    between atoms: _478  and  _479
REMARK  204  A    between atoms: _479  and  _480
REMARK  205  A    between atoms: _480  and  _481
REMARK  206  A    between atoms: _485  and  _487
REMARK  207  A    between atoms: _487  and  _488
REMARK  208  A    between atoms: _487  and  _490
REMARK                            x       y       z     vdW  Elec       q    Type
REMARK                         _______ _______ _______ _____ _____    ______ ____
ROOT
ATOM      1  CA  PHE A   4      62.395  12.750  30.402  0.00  0.00    +0.153 C 
ENDROOT
BRANCH   1   2
ATOM      2  C   PHE A   4      61.585  13.827  31.098  0.00  0.00    +0.241 C 
ATOM      3  O   PHE A   4      62.124  14.879  31.419  0.00  0.00    -0.273 OA
ATOM      4  N   TYR A   5      60.268  13.590  31.307  0.00  0.00    -0.298 N 
ATOM      5  H   TYR A   5      59.860  12.673  31.035  0.00  0.00    +0.150 HD
BRANCH   4   6
ATOM      6  CA  TYR A   5      59.408  14.618  31.916  0.00  0.00    +0.141 C 
BRANCH   6   7
ATOM      7  C   TYR A   5      59.754  15.016  33.339  0.00  0.00    +0.227 C 
ATOM      8  O   TYR A   5      59.344  16.095  33.774  0.00  0.00    -0.286 OA
ENDBRANCH   6   7
BRANCH   6   9
ATOM      9  CB  TYR A   5      57.922  14.281  31.752  0.00  0.00    +0.054 C 
BRANCH   9  10
ATOM     10  CG  TYR A   5      57.592  14.053  30.300  0.00  0.00    -0.020 A 
ATOM     11  CD2 TYR A   5      57.548  12.766  29.772  0.00  0.00    -0.001 A 
ATOM     12  CE2 TYR A   5      57.291  12.549  28.423  0.00  0.00    +0.036 A 
ATOM     13  CZ  TYR A   5      57.096  13.624  27.578  0.00  0.00    +0.134 A 
ATOM     14  CE1 TYR A   5      57.148  14.915  28.073  0.00  0.00    +0.036 A 
ATOM     15  CD1 TYR A   5      57.398  15.123  29.436  0.00  0.00    -0.001 A 
BRANCH  13  16
ATOM     16  OH  TYR A   5      56.817  13.381  26.256  0.00  0.00    -0.506 OA
ATOM     17  HH  TYR A   5      56.704  14.242  25.780  0.00  0.00    +0.292 HD
ENDBRANCH  13  16
ENDBRANCH   9  10
ENDBRANCH   6   9
ENDBRANCH   4   6
ENDBRANCH   1   2
BRANCH   1  20
ATOM     18  C   GLY A   3      62.058  11.163  32.227  0.00  0.00    +0.243 C 
ATOM     19  O   GLY A   3      62.356  12.030  33.033  0.00  0.00    -0.273 OA
ATOM     20  N   PHE A   4      62.054  11.395  30.898  0.00  0.00    -0.297 N 
ATOM     21  H   PHE A   4      61.815  10.634  30.231  0.00  0.00    +0.150 HD
BRANCH  18  22
ATOM     22  CA  GLY A   3      61.679   9.790  32.743  0.00  0.00    +0.176 C 
BRANCH  22  24
ATOM     23  C   VAL A   2      59.507   9.574  31.559  0.00  0.00    +0.241 C 
ATOM     24  N   GLY A   3      60.693   9.082  31.933  0.00  0.00    -0.295 N 
ATOM     25  H   GLY A   3      60.931   8.119  31.622  0.00  0.00    +0.150 HD
ATOM     26  O   VAL A   2      59.114  10.723  31.825  0.00  0.00    -0.273 OA
BRANCH  23  27
ATOM     27  CA  VAL A   2      58.609   8.612  30.738  0.00  0.00    +0.148 C 
BRANCH  27  29
ATOM     28  C   GLY A   1      59.365   6.415  29.960  0.00  0.00    +0.240 C 
ATOM     29  N   VAL A   2      58.958   7.205  30.964  0.00  0.00    -0.297 N 
ATOM     30  H   VAL A   2      58.888   6.812  31.924  0.00  0.00    +0.150 HD
ATOM     31  O   GLY A   1      59.495   6.833  28.809  0.00  0.00    -0.274 OA
BRANCH  28  32
ATOM     32  CA  GLY A   1      59.673   4.961  30.283  0.00  0.00    +0.169 C 
BRANCH  32  33
ATOM     33  N   GLY A   1      59.115   4.448  31.533  0.00  0.00    -0.236 NA
ATOM     34  H   GLY A   1      59.775   4.231  32.307  0.00  0.00    +0.142 HD
ENDBRANCH  32  33
ENDBRANCH  28  32
ENDBRANCH  27  29
BRANCH  27  35
ATOM     35  CB  VAL A   2      57.082   8.881  30.907  0.00  0.00    +0.027 C 
ATOM     36  CG2 VAL A   2      56.562   8.459  32.283  0.00  0.00    +0.002 C 
ATOM     37  CG1 VAL A   2      56.289   8.189  29.804  0.00  0.00    +0.002 C 
ENDBRANCH  27  35
ENDBRANCH  23  27
ENDBRANCH  22  24
ENDBRANCH  18  22
ENDBRANCH   1  20
BRANCH   1  38
ATOM     38  CB  PHE A   4      62.180  12.857  28.864  0.00  0.00    +0.055 C 
BRANCH  38  39
ATOM     39  CG  PHE A   4      62.223  14.290  28.368  0.00  0.00    -0.020 A 
ATOM     40  CD2 PHE A   4      63.421  14.997  28.332  0.00  0.00    -0.004 A 
ATOM     41  CE2 PHE A   4      63.449  16.347  27.928  0.00  0.00    -0.000 A 
ATOM     42  CZ  PHE A   4      62.275  16.989  27.584  0.00  0.00    -0.000 A 
ATOM     43  CE1 PHE A   4      61.076  16.309  27.620  0.00  0.00    -0.000 A 
ATOM     44  CD1 PHE A   4      61.048  14.956  28.002  0.00  0.00    -0.004 A 
ENDBRANCH  38  39
ENDBRANCH   1  38
TORSDOF 16
REMARK  Name = ../refined-set-2016/3b25/3b25_pocket.pdb
REMARK  208 active torsions:
REMARK  status: ('A' for Active; 'I' for Inactive)
REMARK    1  A    between atoms: _1  and  _3
REMARK    2  A    between atoms: _3  and  _4
REMARK    3  A    between atoms: _3  and  _6
REMARK    4  A    between atoms: _6  and  _7
REMARK    5  A    between atoms: _13  and  _15
REMARK    6  A    between atoms: _15  and  _16
REMARK    7  A    between atoms: _15  and  _18
REMARK    8  A    between atoms: _18  and  _19
REMARK    9  A    between atoms: _19  and  _20
REMARK   10  A    between atoms: _23  and  _25
REMARK   11  A    between atoms: _25  and  _26
REMARK   12  A    between atoms: _25  and  _28
REMARK   13  A    between atoms: _28  and  _29
REMARK   14  A    between atoms: _32  and  _34
REMARK   15  A    between atoms: _34  and  _35
REMARK   16  A    between atoms: _34  and  _37
REMARK   17  A    between atoms: _37  and  _38
REMARK   18  A    between atoms: _41  and  _43
REMARK   19  A    between atoms: _43  and  _44
REMARK   20  A    between atoms: _43  and  _46
REMARK   21  A    between atoms: _46  and  _47
REMARK   22  A    between atoms: _49  and  _51
REMARK   23  A    between atoms: _51  and  _52
REMARK   24  A    between atoms: _51  and  _54
REMARK   25  A    between atoms: _54  and  _55
REMARK   26  A    between atoms: _60  and  _62
REMARK   27  A    between atoms: _62  and  _63
REMARK   28  A    between atoms: _62  and  _65
REMARK   29  A    between atoms: _65  and  _66
REMARK   30  A    between atoms: _68  and  _70
REMARK   31  A    between atoms: _70  and  _71
REMARK   32  A    between atoms: _70  and  _73
REMARK   33  A    between atoms: _73  and  _74
REMARK   34  A    between atoms: _76  and  _78
REMARK   35  A    between atoms: _78  and  _79
REMARK   36  A    between atoms: _78  and  _81
REMARK   37  A    between atoms: _81  and  _82
REMARK   38  A    between atoms: _85  and  _87
REMARK   39  A    between atoms: _87  and  _88
REMARK   40  A    between atoms: _91  and  _93
REMARK   41  A    between atoms: _93  and  _94
REMARK   42  A    between atoms: _93  and  _96
REMARK   43  A    between atoms: _96  and  _97
REMARK   44  A    between atoms: _100  and  _102
REMARK   45  A    between atoms: _102  and  _103
REMARK   46  A    between atoms: _102  and  _105
REMARK   47  A    between atoms: _105  and  _106
REMARK   48  A    between atoms: _106  and  _107
REMARK   49  A    between atoms: _107  and  _108
REMARK   50  A    between atoms: _108  and  _109
REMARK   51  A    between atoms: _113  and  _115
REMARK   52  A    between atoms: _115  and  _116
REMARK   53  A    between atoms: _115  and  _118
REMARK   54  A    between atoms: _118  and  _119
REMARK   55  A    between atoms: _122  and  _124
REMARK   56  A    between atoms: _124  and  _125
REMARK   57  A    between atoms: _124  and  _127
REMARK   58  A    between atoms: _127  and  _128
REMARK   59  A    between atoms: _131  and  _133
REMARK   60  A    between atoms: _133  and  _134
REMARK   61  A    between atoms: _133  and  _136
REMARK   62  A    between atoms: _136  and  _137
REMARK   63  A    between atoms: _140  and  _142
REMARK   64  A    between atoms: _142  and  _143
REMARK   65  A    between atoms: _142  and  _145
REMARK   66  A    between atoms: _148  and  _150
REMARK   67  A    between atoms: _150  and  _151
REMARK   68  A    between atoms: _150  and  _153
REMARK   69  A    between atoms: _153  and  _154
REMARK   70  A    between atoms: _157  and  _159
REMARK   71  A    between atoms: _159  and  _160
REMARK   72  A    between atoms: _159  and  _162
REMARK   73  A    between atoms: _162  and  _163
REMARK   74  A    between atoms: _166  and  _168
REMARK   75  A    between atoms: _168  and  _169
REMARK   76  A    between atoms: _171  and  _173
REMARK   77  A    between atoms: _173  and  _174
REMARK   78  A    between atoms: _173  and  _176
REMARK   79  A    between atoms: _176  and  _177
REMARK   80  A    between atoms: _180  and  _182
REMARK   81  A    between atoms: _182  and  _183
REMARK   82  A    between atoms: _185  and  _187
REMARK   83  A    between atoms: _187  and  _188
REMARK   84  A    between atoms: _187  and  _190
REMARK   85  A    between atoms: _190  and  _191
REMARK   86  A    between atoms: _191  and  _192
REMARK   87  A    between atoms: _194  and  _196
REMARK   88  A    between atoms: _196  and  _197
REMARK   89  A    between atoms: _196  and  _199
REMARK   90  A    between atoms: _199  and  _200
REMARK   91  A    between atoms: _203  and  _205
REMARK   92  A    between atoms: _205  and  _206
REMARK   93  A    between atoms: _205  and  _208
REMARK   94  A    between atoms: _208  and  _209
REMARK   95  A    between atoms: _212  and  _214
REMARK   96  A    between atoms: _214  and  _215
REMARK   97  A    between atoms: _214  and  _217
REMARK   98  A    between atoms: _217  and  _218
REMARK   99  A    between atoms: _221  and  _223
REMARK  100  A    between atoms: _223  and  _224
REMARK  101  A    between atoms: _223  and  _226
REMARK  102  A    between atoms: _226  and  _227
REMARK  103  A    between atoms: _230  and  _232
REMARK  104  A    between atoms: _232  and  _233
REMARK  105  A    between atoms: _232  and  _235
REMARK  106  A    between atoms: _235  and  _236
REMARK  107  A    between atoms: _241  and  _243
REMARK  108  A    between atoms: _243  and  _244
REMARK  109  A    between atoms: _243  and  _246
REMARK  110  A    between atoms: _246  and  _247
REMARK  111  A    between atoms: _250  and  _252
REMARK  112  A    between atoms: _252  and  _253
REMARK  113  A    between atoms: _255  and  _257
REMARK  114  A    between atoms: _257  and  _258
REMARK  115  A    between atoms: _257  and  _260
REMARK  116  A    between atoms: _260  and  _261
REMARK  117  A    between atoms: _264  and  _266
REMARK  118  A    between atoms: _266  and  _267
REMARK  119  A    between atoms: _270  and  _272
REMARK  120  A    between atoms: _272  and  _273
REMARK  121  A    between atoms: _275  and  _277
REMARK  122  A    between atoms: _277  and  _278
REMARK  123  A    between atoms: _277  and  _280
REMARK  124  A    between atoms: _283  and  _285
REMARK  125  A    between atoms: _285  and  _286
REMARK  126  A    between atoms: _288  and  _290
REMARK  127  A    between atoms: _290  and  _291
REMARK  128  A    between atoms: _290  and  _293
REMARK  129  A    between atoms: _293  and  _294
REMARK  130  A    between atoms: _300  and  _302
REMARK  131  A    between atoms: _302  and  _303
REMARK  132  A    between atoms: _302  and  _305
REMARK  133  A    between atoms: _305  and  _306
REMARK  134  A    between atoms: _311  and  _312
REMARK  135  A    between atoms: _314  and  _316
REMARK  136  A    between atoms: _316  and  _317
REMARK  137  A    between atoms: _316  and  _319
REMARK  138  A    between atoms: _319  and  _320
REMARK  139  A    between atoms: _325  and  _326
REMARK  140  A    between atoms: _328  and  _330
REMARK  141  A    between atoms: _330  and  _331
REMARK  142  A    between atoms: _330  and  _333
REMARK  143  A    between atoms: _336  and  _338
REMARK  144  A    between atoms: _338  and  _339
REMARK  145  A    between atoms: _338  and  _341
REMARK  146  A    between atoms: _341  and  _342
REMARK  147  A    between atoms: _345  and  _347
REMARK  148  A    between atoms: _347  and  _348
REMARK  149  A    between atoms: _347  and  _350
REMARK  150  A    between atoms: _353  and  _355
REMARK  151  A    between atoms: _355  and  _356
REMARK  152  A    between atoms: _355  and  _358
REMARK  153  A    between atoms: _358  and  _359
REMARK  154  A    between atoms: _362  and  _364
REMARK  155  A    between atoms: _364  and  _365
REMARK  156  A    between atoms: _364  and  _367
REMARK  157  A    between atoms: _367  and  _368
REMARK  158  A    between atoms: _371  and  _373
REMARK  159  A    between atoms: _373  and  _374
REMARK  160  A    between atoms: _373  and  _376
REMARK  161  A    between atoms: _376  and  _377
REMARK  162  A    between atoms: _377  and  _378
REMARK  163  A    between atoms: _378  and  _379
REMARK  164  A    between atoms: _379  and  _380
REMARK  165  A    between atoms: _384  and  _386
REMARK  166  A    between atoms: _386  and  _387
REMARK  167  A    between atoms: _386  and  _389
REMARK  168  A    between atoms: _389  and  _390
REMARK  169  A    between atoms: _395  and  _397
REMARK  170  A    between atoms: _397  and  _398
REMARK  171  A    between atoms: _397  and  _400
REMARK  172  A    between atoms: _400  and  _401
REMARK  173  A    between atoms: _411  and  _413
REMARK  174  A    between atoms: _413  and  _414
REMARK  175  A    between atoms: _413  and  _416
REMARK  176  A    between atoms: _416  and  _417
REMARK  177  A    between atoms: _417  and  _418
REMARK  178  A    between atoms: _421  and  _423
REMARK  179  A    between atoms: _423  and  _424
REMARK  180  A    between atoms: _423  and  _426
REMARK  181  A    between atoms: _426  and  _427
REMARK  182  A    between atoms: _429  and  _431
REMARK  183  A    between atoms: _431  and  _432
REMARK  184  A    between atoms: _431  and  _434
REMARK  185  A    between atoms: _434  and  _435
REMARK  186  A    between atoms: _441  and  _443
REMARK  187  A    between atoms: _443  and  _444
REMARK  188  A    between atoms: _443  and  _446
REMARK  189  A    between atoms: _446  and  _447
REMARK  190  A    between atoms: _450  and  _452
REMARK  191  A    between atoms: _452  and  _453
REMARK  192  A    between atoms: _452  and  _455
REMARK  193  A    between atoms: _458  and  _460
REMARK  194  A    between atoms: _460  and  _461
REMARK  195  A    between atoms: _463  and  _465
REMARK  196  A    between atoms: _465  and  _466
REMARK  197  A    between atoms: _465  and  _468
REMARK  198  A    between atoms: _468  and  _469
REMARK  199  A    between atoms: _472  and  _474
REMARK  200  A    between atoms: _474  and  _475
REMARK  201  A    between atoms: _474  and  _477
REMARK  202  A    between atoms: _477  and  _478
REMARK  203  A    between atoms: _478  and  _479
REMARK  204  A    between atoms: _479  and  _480
REMARK  205  A    between atoms: _480  and  _481
REMARK  206  A    between atoms: _485  and  _487
REMARK  207  A    between atoms: _487  and  _488
REMARK  208  A    between atoms: _487  and  _490
REMARK                            x       y       z     vdW  Elec       q    Type
REMARK                         _______ _______ _______ _____ _____    ______ ____
ROOT
ATOM      1  CG  TYR A   1      58.859  20.005  32.786  0.00  0.00    -0.020 A 
ATOM      2  CD2 TYR A   1      58.810  21.351  32.404  0.00  0.00    -0.001 A 
ATOM      3  CE2 TYR A   1      59.017  21.733  31.077  0.00  0.00    +0.036 A 
ATOM      4  CZ  TYR A   1      59.323  20.773  30.129  0.00  0.00    +0.134 A 
ATOM      5  CE1 TYR A   1      59.396  19.437  30.492  0.00  0.00    +0.036 A 
ATOM      6  CD1 TYR A   1      59.153  19.063  31.813  0.00  0.00    -0.001 A 
ENDROOT
BRANCH   4   7
ATOM      7  OH  TYR A   1      59.567  21.117  28.816  0.00  0.00    -0.506 OA
ATOM      8  HH  TYR A   1      59.479  22.097  28.711  0.00  0.00    +0.292 HD
ENDBRANCH   4   7
BRANCH   1   9
ATOM      9  CB  TYR A   1      58.703  19.603  34.236  0.00  0.00    +0.051 C 
BRANCH   9  10
ATOM     10  CA  TYR A   1      60.064  19.616  34.952  0.00  0.00    +0.137 C 
BRANCH  10  11
ATOM     11  N   TYR A   1      60.961  18.569  34.429  0.00  0.00    -0.239 NA
ATOM     12  H   TYR A   1      60.544  17.717  34.002  0.00  0.00    +0.142 HD
ENDBRANCH  10  11
BRANCH  10  13
ATOM     13  C   TYR A   1      59.982  19.734  36.498  0.00  0.00    +0.224 C 
ATOM     14  O   TYR A   1      59.385  20.680  37.021  0.00  0.00    -0.287 OA
ENDBRANCH  10  13
ENDBRANCH   9  10
ENDBRANCH   1   9
TORSDOF 5
REMARK  Name = ../refined-set-2016/3b25/3b25_pocket.pdb
REMARK  208 active torsions:
REMARK  status: ('A' for Active; 'I' for Inactive)
REMARK    1  A    between atoms: _1  and  _3
REMARK    2  A    between atoms: _3  and  _4
REMARK    3  A    between atoms: _3  and  _6
REMARK    4  A    between atoms: _6  and  _7
REMARK    5  A    between atoms: _13  and  _15
REMARK    6  A    between atoms: _15  and  _16
REMARK    7  A    between atoms: _15  and  _18
REMARK    8  A    between atoms: _18  and  _19
REMARK    9  A    between atoms: _19  and  _20
REMARK   10  A    between atoms: _23  and  _25
REMARK   11  A    between atoms: _25  and  _26
REMARK   12  A    between atoms: _25  and  _28
REMARK   13  A    between atoms: _28  and  _29
REMARK   14  A    between atoms: _32  and  _34
REMARK   15  A    between atoms: _34  and  _35
REMARK   16  A    between atoms: _34  and  _37
REMARK   17  A    between atoms: _37  and  _38
REMARK   18  A    between atoms: _41  and  _43
REMARK   19  A    between atoms: _43  and  _44
REMARK   20  A    between atoms: _43  and  _46
REMARK   21  A    between atoms: _46  and  _47
REMARK   22  A    between atoms: _49  and  _51
REMARK   23  A    between atoms: _51  and  _52
REMARK   24  A    between atoms: _51  and  _54
REMARK   25  A    between atoms: _54  and  _55
REMARK   26  A    between atoms: _60  and  _62
REMARK   27  A    between atoms: _62  and  _63
REMARK   28  A    between atoms: _62  and  _65
REMARK   29  A    between atoms: _65  and  _66
REMARK   30  A    between atoms: _68  and  _70
REMARK   31  A    between atoms: _70  and  _71
REMARK   32  A    between atoms: _70  and  _73
REMARK   33  A    between atoms: _73  and  _74
REMARK   34  A    between atoms: _76  and  _78
REMARK   35  A    between atoms: _78  and  _79
REMARK   36  A    between atoms: _78  and  _81
REMARK   37  A    between atoms: _81  and  _82
REMARK   38  A    between atoms: _85  and  _87
REMARK   39  A    between atoms: _87  and  _88
REMARK   40  A    between atoms: _91  and  _93
REMARK   41  A    between atoms: _93  and  _94
REMARK   42  A    between atoms: _93  and  _96
REMARK   43  A    between atoms: _96  and  _97
REMARK   44  A    between atoms: _100  and  _102
REMARK   45  A    between atoms: _102  and  _103
REMARK   46  A    between atoms: _102  and  _105
REMARK   47  A    between atoms: _105  and  _106
REMARK   48  A    between atoms: _106  and  _107
REMARK   49  A    between atoms: _107  and  _108
REMARK   50  A    between atoms: _108  and  _109
REMARK   51  A    between atoms: _113  and  _115
REMARK   52  A    between atoms: _115  and  _116
REMARK   53  A    between atoms: _115  and  _118
REMARK   54  A    between atoms: _118  and  _119
REMARK   55  A    between atoms: _122  and  _124
REMARK   56  A    between atoms: _124  and  _125
REMARK   57  A    between atoms: _124  and  _127
REMARK   58  A    between atoms: _127  and  _128
REMARK   59  A    between atoms: _131  and  _133
REMARK   60  A    between atoms: _133  and  _134
REMARK   61  A    between atoms: _133  and  _136
REMARK   62  A    between atoms: _136  and  _137
REMARK   63  A    between atoms: _140  and  _142
REMARK   64  A    between atoms: _142  and  _143
REMARK   65  A    between atoms: _142  and  _145
REMARK   66  A    between atoms: _148  and  _150
REMARK   67  A    between atoms: _150  and  _151
REMARK   68  A    between atoms: _150  and  _153
REMARK   69  A    between atoms: _153  and  _154
REMARK   70  A    between atoms: _157  and  _159
REMARK   71  A    between atoms: _159  and  _160
REMARK   72  A    between atoms: _159  and  _162
REMARK   73  A    between atoms: _162  and  _163
REMARK   74  A    between atoms: _166  and  _168
REMARK   75  A    between atoms: _168  and  _169
REMARK   76  A    between atoms: _171  and  _173
REMARK   77  A    between atoms: _173  and  _174
REMARK   78  A    between atoms: _173  and  _176
REMARK   79  A    between atoms: _176  and  _177
REMARK   80  A    between atoms: _180  and  _182
REMARK   81  A    between atoms: _182  and  _183
REMARK   82  A    between atoms: _185  and  _187
REMARK   83  A    between atoms: _187  and  _188
REMARK   84  A    between atoms: _187  and  _190
REMARK   85  A    between atoms: _190  and  _191
REMARK   86  A    between atoms: _191  and  _192
REMARK   87  A    between atoms: _194  and  _196
REMARK   88  A    between atoms: _196  and  _197
REMARK   89  A    between atoms: _196  and  _199
REMARK   90  A    between atoms: _199  and  _200
REMARK   91  A    between atoms: _203  and  _205
REMARK   92  A    between atoms: _205  and  _206
REMARK   93  A    between atoms: _205  and  _208
REMARK   94  A    between atoms: _208  and  _209
REMARK   95  A    between atoms: _212  and  _214
REMARK   96  A    between atoms: _214  and  _215
REMARK   97  A    between atoms: _214  and  _217
REMARK   98  A    between atoms: _217  and  _218
REMARK   99  A    between atoms: _221  and  _223
REMARK  100  A    between atoms: _223  and  _224
REMARK  101  A    between atoms: _223  and  _226
REMARK  102  A    between atoms: _226  and  _227
REMARK  103  A    between atoms: _230  and  _232
REMARK  104  A    between atoms: _232  and  _233
REMARK  105  A    between atoms: _232  and  _235
REMARK  106  A    between atoms: _235  and  _236
REMARK  107  A    between atoms: _241  and  _243
REMARK  108  A    between atoms: _243  and  _244
REMARK  109  A    between atoms: _243  and  _246
REMARK  110  A    between atoms: _246  and  _247
REMARK  111  A    between atoms: _250  and  _252
REMARK  112  A    between atoms: _252  and  _253
REMARK  113  A    between atoms: _255  and  _257
REMARK  114  A    between atoms: _257  and  _258
REMARK  115  A    between atoms: _257  and  _260
REMARK  116  A    between atoms: _260  and  _261
REMARK  117  A    between atoms: _264  and  _266
REMARK  118  A    between atoms: _266  and  _267
REMARK  119  A    between atoms: _270  and  _272
REMARK  120  A    between atoms: _272  and  _273
REMARK  121  A    between atoms: _275  and  _277
REMARK  122  A    between atoms: _277  and  _278
REMARK  123  A    between atoms: _277  and  _280
REMARK  124  A    between atoms: _283  and  _285
REMARK  125  A    between atoms: _285  and  _286
REMARK  126  A    between atoms: _288  and  _290
REMARK  127  A    between atoms: _290  and  _291
REMARK  128  A    between atoms: _290  and  _293
REMARK  129  A    between atoms: _293  and  _294
REMARK  130  A    between atoms: _300  and  _302
REMARK  131  A    between atoms: _302  and  _303
REMARK  132  A    between atoms: _302  and  _305
REMARK  133  A    between atoms: _305  and  _306
REMARK  134  A    between atoms: _311  and  _312
REMARK  135  A    between atoms: _314  and  _316
REMARK  136  A    between atoms: _316  and  _317
REMARK  137  A    between atoms: _316  and  _319
REMARK  138  A    between atoms: _319  and  _320
REMARK  139  A    between atoms: _325  and  _326
REMARK  140  A    between atoms: _328  and  _330
REMARK  141  A    between atoms: _330  and  _331
REMARK  142  A    between atoms: _330  and  _333
REMARK  143  A    between atoms: _336  and  _338
REMARK  144  A    between atoms: _338  and  _339
REMARK  145  A    between atoms: _338  and  _341
REMARK  146  A    between atoms: _341  and  _342
REMARK  147  A    between atoms: _345  and  _347
REMARK  148  A    between atoms: _347  and  _348
REMARK  149  A    between atoms: _347  and  _350
REMARK  150  A    between atoms: _353  and  _355
REMARK  151  A    between atoms: _355  and  _356
REMARK  152  A    between atoms: _355  and  _358
REMARK  153  A    between atoms: _358  and  _359
REMARK  154  A    between atoms: _362  and  _364
REMARK  155  A    between atoms: _364  and  _365
REMARK  156  A    between atoms: _364  and  _367
REMARK  157  A    between atoms: _367  and  _368
REMARK  158  A    between atoms: _371  and  _373
REMARK  159  A    between atoms: _373  and  _374
REMARK  160  A    between atoms: _373  and  _376
REMARK  161  A    between atoms: _376  and  _377
REMARK  162  A    between atoms: _377  and  _378
REMARK  163  A    between atoms: _378  and  _379
REMARK  164  A    between atoms: _379  and  _380
REMARK  165  A    between atoms: _384  and  _386
REMARK  166  A    between atoms: _386  and  _387
REMARK  167  A    between atoms: _386  and  _389
REMARK  168  A    between atoms: _389  and  _390
REMARK  169  A    between atoms: _395  and  _397
REMARK  170  A    between atoms: _397  and  _398
REMARK  171  A    between atoms: _397  and  _400
REMARK  172  A    between atoms: _400  and  _401
REMARK  173  A    between atoms: _411  and  _413
REMARK  174  A    between atoms: _413  and  _414
REMARK  175  A    between atoms: _413  and  _416
REMARK  176  A    between atoms: _416  and  _417
REMARK  177  A    between atoms: _417  and  _418
REMARK  178  A    between atoms: _421  and  _423
REMARK  179  A    between atoms: _423  and  _424
REMARK  180  A    between atoms: _423  and  _426
REMARK  181  A    between atoms: _426  and  _427
REMARK  182  A    between atoms: _429  and  _431
REMARK  183  A    between atoms: _431  and  _432
REMARK  184  A    between atoms: _431  and  _434
REMARK  185  A    between atoms: _434  and  _435
REMARK  186  A    between atoms: _441  and  _443
REMARK  187  A    between atoms: _443  and  _444
REMARK  188  A    between atoms: _443  and  _446
REMARK  189  A    between atoms: _446  and  _447
REMARK  190  A    between atoms: _450  and  _452
REMARK  191  A    between atoms: _452  and  _453
REMARK  192  A    between atoms: _452  and  _455
REMARK  193  A    between atoms: _458  and  _460
REMARK  194  A    between atoms: _460  and  _461
REMARK  195  A    between atoms: _463  and  _465
REMARK  196  A    between atoms: _465  and  _466
REMARK  197  A    between atoms: _465  and  _468
REMARK  198  A    between atoms: _468  and  _469
REMARK  199  A    between atoms: _472  and  _474
REMARK  200  A    between atoms: _474  and  _475
REMARK  201  A    between atoms: _474  and  _477
REMARK  202  A    between atoms: _477  and  _478
REMARK  203  A    between atoms: _478  and  _479
REMARK  204  A    between atoms: _479  and  _480
REMARK  205  A    between atoms: _480  and  _481
REMARK  206  A    between atoms: _485  and  _487
REMARK  207  A    between atoms: _487  and  _488
REMARK  208  A    between atoms: _487  and  _490
REMARK                            x       y       z     vdW  Elec       q    Type
REMARK                         _______ _______ _______ _____ _____    ______ ____
ROOT
ATOM      1  C   ILE A   4      69.061  18.733  20.173  0.00  0.00    +0.241 C 
ATOM      2  O   ILE A   4      69.682  18.048  20.966  0.00  0.00    -0.273 OA
ATOM      3  N   THR A   5      68.683  18.270  18.980  0.00  0.00    -0.295 N 
ATOM      4  H   THR A   5      68.189  18.887  18.304  0.00  0.00    +0.150 HD
ENDROOT
BRANCH   3   5
ATOM      5  CA  THR A   5      68.978  16.872  18.639  0.00  0.00    +0.176 C 
BRANCH   5   6
ATOM      6  C   THR A   5      69.368  16.731  17.172  0.00  0.00    +0.243 C 
ATOM      7  N   LYS A   6      70.195  15.734  16.880  0.00  0.00    -0.297 N 
ATOM      8  H   LYS A   6      70.552  15.131  17.648  0.00  0.00    +0.150 HD
ATOM      9  O   THR A   5      68.913  17.507  16.336  0.00  0.00    -0.273 OA
BRANCH   7  10
ATOM     10  CA  LYS A   6      70.620  15.459  15.495  0.00  0.00    +0.149 C 
BRANCH  10  11
ATOM     11  C   LYS A   6      70.738  13.938  15.316  0.00  0.00    +0.241 C 
ATOM     12  O   LYS A   6      71.511  13.309  16.024  0.00  0.00    -0.273 OA
ATOM     13  N   HIS A   7      69.922  13.351  14.422  0.00  0.00    -0.298 N 
ATOM     14  H   HIS A   7      69.230  13.951  13.930  0.00  0.00    +0.150 HD
BRANCH  13  15
ATOM     15  CA  HIS A   7      69.943  11.925  14.096  0.00  0.00    +0.143 C 
BRANCH  15  16
ATOM     16  C   HIS A   7      70.622  11.845  12.725  0.00  0.00    +0.227 C 
ATOM     17  O   HIS A   7      70.552  12.807  11.960  0.00  0.00    -0.286 OA
ENDBRANCH  15  16
BRANCH  15  18
ATOM     18  CB  HIS A   7      68.493  11.391  14.001  0.00  0.00    +0.075 C 
BRANCH  18  19
ATOM     19  CG  HIS A   7      68.377   9.907  13.812  0.00  0.00    +0.082 A 
ATOM     20  CD2 HIS A   7      68.032   8.947  14.697  0.00  0.00    +0.115 A 
ATOM     21  NE2 HIS A   7      68.032   7.753  14.008  0.00  0.00    -0.221 NA
ATOM     22  CE1 HIS A   7      68.341   8.029  12.749  0.00  0.00    +0.199 A 
ATOM     23  ND1 HIS A   7      68.522   9.326  12.567  0.00  0.00    -0.227 NA
ENDBRANCH  18  19
ENDBRANCH  15  18
ENDBRANCH  13  15
ENDBRANCH  10  11
BRANCH  10  24
ATOM     24  CB  LYS A   6      71.961  16.170  15.209  0.00  0.00    +0.029 C 
BRANCH  24  25
ATOM     25  CG  LYS A   6      72.581  15.851  13.830  0.00  0.00    +0.000 C 
BRANCH  25  26
ATOM     26  CD  LYS A   6      71.740  16.361  12.664  0.00  0.00    -0.024 C 
BRANCH  26  27
ATOM     27  CE  LYS A   6      72.456  16.139  11.333  0.00  0.00    -0.086 C 
BRANCH  27  28
ATOM     28  NZ  LYS A   6      72.419  14.709  10.929  0.00  0.00    +0.380 N 
ATOM     29  HZ1 LYS A   6      72.887  14.132  11.657  0.00  0.00    -0.089 HD
ATOM     30  HZ2 LYS A   6      71.430  14.404  10.827  0.00  0.00    -0.089 HD
ATOM     31  HZ3 LYS A   6      72.914  14.593  10.022  0.00  0.00    -0.089 HD
ENDBRANCH  27  28
ENDBRANCH  26  27
ENDBRANCH  25  26
ENDBRANCH  24  25
ENDBRANCH  10  24
ENDBRANCH   7  10
ENDBRANCH   5   6
BRANCH   5  32
ATOM     32  CB  THR A   5      67.796  15.963  19.060  0.00  0.00    +0.137 C 
ATOM     33  CG2 THR A   5      66.516  16.212  18.228  0.00  0.00    +0.034 C 
BRANCH  32  34
ATOM     34  OG1 THR A   5      68.173  14.569  19.051  0.00  0.00    -0.382 OA
ATOM     35  HG1 THR A   5      68.920  14.426  19.684  0.00  0.00    +0.210 HD
ENDBRANCH  32  34
ENDBRANCH   5  32
ENDBRANCH   3   5
BRANCH   1  36
ATOM     36  CA  ILE A   4      68.670  20.147  20.552  0.00  0.00    +0.149 C 
BRANCH  36  38
ATOM     37  C   VAL A   3      66.698  20.103  22.029  0.00  0.00    +0.241 C 
ATOM     38  N   ILE A   4      68.023  20.045  21.870  0.00  0.00    -0.297 N 
ATOM     39  H   ILE A   4      68.622  19.923  22.712  0.00  0.00    +0.150 HD
ATOM     40  O   VAL A   3      65.902  20.292  21.105  0.00  0.00    -0.273 OA
BRANCH  37  41
ATOM     41  CA  VAL A   3      66.174  19.917  23.442  0.00  0.00    +0.149 C 
BRANCH  41  44
ATOM     42  C   THR A   2      65.917  21.831  24.939  0.00  0.00    +0.243 C 
ATOM     43  O   THR A   2      66.880  21.489  25.649  0.00  0.00    -0.273 OA
ATOM     44  N   VAL A   3      65.525  21.163  23.850  0.00  0.00    -0.297 N 
ATOM     45  H   VAL A   3      64.740  21.538  23.279  0.00  0.00    +0.150 HD
BRANCH  42  46
ATOM     46  CA  THR A   2      65.145  23.093  25.274  0.00  0.00    +0.176 C 
BRANCH  46  48
ATOM     47  C   VAL A   1      63.568  22.934  27.147  0.00  0.00    +0.238 C 
ATOM     48  N   THR A   2      64.839  22.992  26.701  0.00  0.00    -0.295 N 
ATOM     49  H   THR A   2      65.620  22.964  27.387  0.00  0.00    +0.150 HD
ATOM     50  O   VAL A   1      62.575  23.035  26.409  0.00  0.00    -0.274 OA
BRANCH  47  51
ATOM     51  CA  VAL A   1      63.396  22.726  28.632  0.00  0.00    +0.145 C 
BRANCH  51  52
ATOM     52  CB  VAL A   1      63.043  21.251  28.980  0.00  0.00    +0.025 C 
ATOM     53  CG2 VAL A   1      62.841  21.067  30.496  0.00  0.00    +0.002 C 
ATOM     54  CG1 VAL A   1      64.127  20.294  28.474  0.00  0.00    +0.002 C 
ENDBRANCH  51  52
BRANCH  51  55
ATOM     55  N   VAL A   1      62.423  23.706  29.113  0.00  0.00    -0.238 NA
ATOM     56  H   VAL A   1      61.488  23.758  28.661  0.00  0.00    +0.142 HD
ENDBRANCH  51  55
ENDBRANCH  47  51
ENDBRANCH  46  48
BRANCH  46  57
ATOM     57  CB  THR A   2      65.979  24.349  24.951  0.00  0.00    +0.137 C 
ATOM     58  CG2 THR A   2      66.187  24.531  23.435  0.00  0.00    +0.034 C 
BRANCH  57  59
ATOM     59  OG1 THR A   2      65.326  25.494  25.483  0.00  0.00    -0.382 OA
ATOM     60  HG1 THR A   2      64.427  25.578  25.077  0.00  0.00    +0.210 HD
ENDBRANCH  57  59
ENDBRANCH  46  57
ENDBRANCH  42  46
ENDBRANCH  41  44
BRANCH  41  61
ATOM     61  CB  VAL A   3      65.206  18.703  23.545  0.00  0.00    +0.027 C 
ATOM     62  CG2 VAL A   3      64.724  18.509  24.994  0.00  0.00    +0.002 C 
ATOM     63  CG1 VAL A   3      65.884  17.428  23.009  0.00  0.00    +0.002 C 
ENDBRANCH  41  61
ENDBRANCH  37  41
ENDBRANCH  36  38
BRANCH  36  64
ATOM     64  CB  ILE A   4      69.914  21.096  20.548  0.00  0.00    +0.027 C 
ATOM     65  CG2 ILE A   4      70.390  21.299  19.088  0.00  0.00    +0.002 C 
BRANCH  64  66
ATOM     66  CG1 ILE A   4      69.641  22.466  21.256  0.00  0.00    +0.002 C 
ATOM     67  CD1 ILE A   4      68.572  23.280  20.725  0.00  0.00    +0.000 C 
ENDBRANCH  64  66
ENDBRANCH  36  64
ENDBRANCH   1  36
TORSDOF 29
REMARK  Name = ../refined-set-2016/3b25/3b25_pocket.pdb
REMARK  208 active torsions:
REMARK  status: ('A' for Active; 'I' for Inactive)
REMARK    1  A    between atoms: _1  and  _3
REMARK    2  A    between atoms: _3  and  _4
REMARK    3  A    between atoms: _3  and  _6
REMARK    4  A    between atoms: _6  and  _7
REMARK    5  A    between atoms: _13  and  _15
REMARK    6  A    between atoms: _15  and  _16
REMARK    7  A    between atoms: _15  and  _18
REMARK    8  A    between atoms: _18  and  _19
REMARK    9  A    between atoms: _19  and  _20
REMARK   10  A    between atoms: _23  and  _25
REMARK   11  A    between atoms: _25  and  _26
REMARK   12  A    between atoms: _25  and  _28
REMARK   13  A    between atoms: _28  and  _29
REMARK   14  A    between atoms: _32  and  _34
REMARK   15  A    between atoms: _34  and  _35
REMARK   16  A    between atoms: _34  and  _37
REMARK   17  A    between atoms: _37  and  _38
REMARK   18  A    between atoms: _41  and  _43
REMARK   19  A    between atoms: _43  and  _44
REMARK   20  A    between atoms: _43  and  _46
REMARK   21  A    between atoms: _46  and  _47
REMARK   22  A    between atoms: _49  and  _51
REMARK   23  A    between atoms: _51  and  _52
REMARK   24  A    between atoms: _51  and  _54
REMARK   25  A    between atoms: _54  and  _55
REMARK   26  A    between atoms: _60  and  _62
REMARK   27  A    between atoms: _62  and  _63
REMARK   28  A    between atoms: _62  and  _65
REMARK   29  A    between atoms: _65  and  _66
REMARK   30  A    between atoms: _68  and  _70
REMARK   31  A    between atoms: _70  and  _71
REMARK   32  A    between atoms: _70  and  _73
REMARK   33  A    between atoms: _73  and  _74
REMARK   34  A    between atoms: _76  and  _78
REMARK   35  A    between atoms: _78  and  _79
REMARK   36  A    between atoms: _78  and  _81
REMARK   37  A    between atoms: _81  and  _82
REMARK   38  A    between atoms: _85  and  _87
REMARK   39  A    between atoms: _87  and  _88
REMARK   40  A    between atoms: _91  and  _93
REMARK   41  A    between atoms: _93  and  _94
REMARK   42  A    between atoms: _93  and  _96
REMARK   43  A    between atoms: _96  and  _97
REMARK   44  A    between atoms: _100  and  _102
REMARK   45  A    between atoms: _102  and  _103
REMARK   46  A    between atoms: _102  and  _105
REMARK   47  A    between atoms: _105  and  _106
REMARK   48  A    between atoms: _106  and  _107
REMARK   49  A    between atoms: _107  and  _108
REMARK   50  A    between atoms: _108  and  _109
REMARK   51  A    between atoms: _113  and  _115
REMARK   52  A    between atoms: _115  and  _116
REMARK   53  A    between atoms: _115  and  _118
REMARK   54  A    between atoms: _118  and  _119
REMARK   55  A    between atoms: _122  and  _124
REMARK   56  A    between atoms: _124  and  _125
REMARK   57  A    between atoms: _124  and  _127
REMARK   58  A    between atoms: _127  and  _128
REMARK   59  A    between atoms: _131  and  _133
REMARK   60  A    between atoms: _133  and  _134
REMARK   61  A    between atoms: _133  and  _136
REMARK   62  A    between atoms: _136  and  _137
REMARK   63  A    between atoms: _140  and  _142
REMARK   64  A    between atoms: _142  and  _143
REMARK   65  A    between atoms: _142  and  _145
REMARK   66  A    between atoms: _148  and  _150
REMARK   67  A    between atoms: _150  and  _151
REMARK   68  A    between atoms: _150  and  _153
REMARK   69  A    between atoms: _153  and  _154
REMARK   70  A    between atoms: _157  and  _159
REMARK   71  A    between atoms: _159  and  _160
REMARK   72  A    between atoms: _159  and  _162
REMARK   73  A    between atoms: _162  and  _163
REMARK   74  A    between atoms: _166  and  _168
REMARK   75  A    between atoms: _168  and  _169
REMARK   76  A    between atoms: _171  and  _173
REMARK   77  A    between atoms: _173  and  _174
REMARK   78  A    between atoms: _173  and  _176
REMARK   79  A    between atoms: _176  and  _177
REMARK   80  A    between atoms: _180  and  _182
REMARK   81  A    between atoms: _182  and  _183
REMARK   82  A    between atoms: _185  and  _187
REMARK   83  A    between atoms: _187  and  _188
REMARK   84  A    between atoms: _187  and  _190
REMARK   85  A    between atoms: _190  and  _191
REMARK   86  A    between atoms: _191  and  _192
REMARK   87  A    between atoms: _194  and  _196
REMARK   88  A    between atoms: _196  and  _197
REMARK   89  A    between atoms: _196  and  _199
REMARK   90  A    between atoms: _199  and  _200
REMARK   91  A    between atoms: _203  and  _205
REMARK   92  A    between atoms: _205  and  _206
REMARK   93  A    between atoms: _205  and  _208
REMARK   94  A    between atoms: _208  and  _209
REMARK   95  A    between atoms: _212  and  _214
REMARK   96  A    between atoms: _214  and  _215
REMARK   97  A    between atoms: _214  and  _217
REMARK   98  A    between atoms: _217  and  _218
REMARK   99  A    between atoms: _221  and  _223
REMARK  100  A    between atoms: _223  and  _224
REMARK  101  A    between atoms: _223  and  _226
REMARK  102  A    between atoms: _226  and  _227
REMARK  103  A    between atoms: _230  and  _232
REMARK  104  A    between atoms: _232  and  _233
REMARK  105  A    between atoms: _232  and  _235
REMARK  106  A    between atoms: _235  and  _236
REMARK  107  A    between atoms: _241  and  _243
REMARK  108  A    between atoms: _243  and  _244
REMARK  109  A    between atoms: _243  and  _246
REMARK  110  A    between atoms: _246  and  _247
REMARK  111  A    between atoms: _250  and  _252
REMARK  112  A    between atoms: _252  and  _253
REMARK  113  A    between atoms: _255  and  _257
REMARK  114  A    between atoms: _257  and  _258
REMARK  115  A    between atoms: _257  and  _260
REMARK  116  A    between atoms: _260  and  _261
REMARK  117  A    between atoms: _264  and  _266
REMARK  118  A    between atoms: _266  and  _267
REMARK  119  A    between atoms: _270  and  _272
REMARK  120  A    between atoms: _272  and  _273
REMARK  121  A    between atoms: _275  and  _277
REMARK  122  A    between atoms: _277  and  _278
REMARK  123  A    between atoms: _277  and  _280
REMARK  124  A    between atoms: _283  and  _285
REMARK  125  A    between atoms: _285  and  _286
REMARK  126  A    between atoms: _288  and  _290
REMARK  127  A    between atoms: _290  and  _291
REMARK  128  A    between atoms: _290  and  _293
REMARK  129  A    between atoms: _293  and  _294
REMARK  130  A    between atoms: _300  and  _302
REMARK  131  A    between atoms: _302  and  _303
REMARK  132  A    between atoms: _302  and  _305
REMARK  133  A    between atoms: _305  and  _306
REMARK  134  A    between atoms: _311  and  _312
REMARK  135  A    between atoms: _314  and  _316
REMARK  136  A    between atoms: _316  and  _317
REMARK  137  A    between atoms: _316  and  _319
REMARK  138  A    between atoms: _319  and  _320
REMARK  139  A    between atoms: _325  and  _326
REMARK  140  A    between atoms: _328  and  _330
REMARK  141  A    between atoms: _330  and  _331
REMARK  142  A    between atoms: _330  and  _333
REMARK  143  A    between atoms: _336  and  _338
REMARK  144  A    between atoms: _338  and  _339
REMARK  145  A    between atoms: _338  and  _341
REMARK  146  A    between atoms: _341  and  _342
REMARK  147  A    between atoms: _345  and  _347
REMARK  148  A    between atoms: _347  and  _348
REMARK  149  A    between atoms: _347  and  _350
REMARK  150  A    between atoms: _353  and  _355
REMARK  151  A    between atoms: _355  and  _356
REMARK  152  A    between atoms: _355  and  _358
REMARK  153  A    between atoms: _358  and  _359
REMARK  154  A    between atoms: _362  and  _364
REMARK  155  A    between atoms: _364  and  _365
REMARK  156  A    between atoms: _364  and  _367
REMARK  157  A    between atoms: _367  and  _368
REMARK  158  A    between atoms: _371  and  _373
REMARK  159  A    between atoms: _373  and  _374
REMARK  160  A    between atoms: _373  and  _376
REMARK  161  A    between atoms: _376  and  _377
REMARK  162  A    between atoms: _377  and  _378
REMARK  163  A    between atoms: _378  and  _379
REMARK  164  A    between atoms: _379  and  _380
REMARK  165  A    between atoms: _384  and  _386
REMARK  166  A    between atoms: _386  and  _387
REMARK  167  A    between atoms: _386  and  _389
REMARK  168  A    between atoms: _389  and  _390
REMARK  169  A    between atoms: _395  and  _397
REMARK  170  A    between atoms: _397  and  _398
REMARK  171  A    between atoms: _397  and  _400
REMARK  172  A    between atoms: _400  and  _401
REMARK  173  A    between atoms: _411  and  _413
REMARK  174  A    between atoms: _413  and  _414
REMARK  175  A    between atoms: _413  and  _416
REMARK  176  A    between atoms: _416  and  _417
REMARK  177  A    between atoms: _417  and  _418
REMARK  178  A    between atoms: _421  and  _423
REMARK  179  A    between atoms: _423  and  _424
REMARK  180  A    between atoms: _423  and  _426
REMARK  181  A    between atoms: _426  and  _427
REMARK  182  A    between atoms: _429  and  _431
REMARK  183  A    between atoms: _431  and  _432
REMARK  184  A    between atoms: _431  and  _434
REMARK  185  A    between atoms: _434  and  _435
REMARK  186  A    between atoms: _441  and  _443
REMARK  187  A    between atoms: _443  and  _444
REMARK  188  A    between atoms: _443  and  _446
REMARK  189  A    between atoms: _446  and  _447
REMARK  190  A    between atoms: _450  and  _452
REMARK  191  A    between atoms: _452  and  _453
REMARK  192  A    between atoms: _452  and  _455
REMARK  193  A    between atoms: _458  and  _460
REMARK  194  A    between atoms: _460  and  _461
REMARK  195  A    between atoms: _463  and  _465
REMARK  196  A    between atoms: _465  and  _466
REMARK  197  A    between atoms: _465  and  _468
REMARK  198  A    between atoms: _468  and  _469
REMARK  199  A    between atoms: _472  and  _474
REMARK  200  A    between atoms: _474  and  _475
REMARK  201  A    between atoms: _474  and  _477
REMARK  202  A    between atoms: _477  and  _478
REMARK  203  A    between atoms: _478  and  _479
REMARK  204  A    between atoms: _479  and  _480
REMARK  205  A    between atoms: _480  and  _481
REMARK  206  A    between atoms: _485  and  _487
REMARK  207  A    between atoms: _487  and  _488
REMARK  208  A    between atoms: _487  and  _490
REMARK                            x       y       z     vdW  Elec       q    Type
REMARK                         _______ _______ _______ _____ _____    ______ ____
ROOT
ATOM      1  C   TRP A   1      62.359  22.157  21.860  0.00  0.00    +0.239 C 
ATOM      2  O   TRP A   1      63.410  22.316  22.508  0.00  0.00    -0.274 OA
ATOM      3  N   GLU A   2      61.201  22.713  22.242  0.00  0.00    -0.297 N 
ATOM      4  H   GLU A   2      60.333  22.548  21.694  0.00  0.00    +0.150 HD
ENDROOT
BRANCH   1   5
ATOM      5  CA  TRP A   1      62.337  21.296  20.620  0.00  0.00    +0.149 C 
BRANCH   5   6
ATOM      6  N   TRP A   1      63.645  21.500  19.997  0.00  0.00    -0.238 NA
ATOM      7  H   TRP A   1      64.453  20.987  20.404  0.00  0.00    +0.142 HD
ENDBRANCH   5   6
BRANCH   5   8
ATOM      8  CB  TRP A   1      62.191  19.802  21.007  0.00  0.00    +0.054 C 
BRANCH   8   9
ATOM      9  CG  TRP A   1      60.954  19.401  21.761  0.00  0.00    -0.002 A 
ATOM     10  CD2 TRP A   1      60.725  19.530  23.180  0.00  0.00    +0.013 A 
ATOM     11  CE3 TRP A   1      61.462  20.099  24.249  0.00  0.00    +0.001 A 
ATOM     12  CZ3 TRP A   1      60.918  20.055  25.533  0.00  0.00    +0.000 A 
ATOM     13  CH2 TRP A   1      59.719  19.370  25.787  0.00  0.00    +0.001 A 
ATOM     14  CZ2 TRP A   1      58.998  18.775  24.770  0.00  0.00    +0.017 A 
ATOM     15  CE2 TRP A   1      59.490  18.902  23.464  0.00  0.00    +0.056 A 
ATOM     16  NE1 TRP A   1      59.011  18.393  22.282  0.00  0.00    -0.352 N 
ATOM     17  HE1 TRP A   1      58.115  17.877  22.167  0.00  0.00    +0.166 HD
ATOM     18  CD1 TRP A   1      59.907  18.675  21.272  0.00  0.00    +0.068 A 
ENDBRANCH   8   9
ENDBRANCH   5   8
ENDBRANCH   1   5
BRANCH   3  19
ATOM     19  CA  GLU A   2      61.171  23.545  23.425  0.00  0.00    +0.149 C 
BRANCH  19  20
ATOM     20  C   GLU A   2      59.807  23.551  24.056  0.00  0.00    +0.241 C 
ATOM     21  N   SER A   3      59.773  23.553  25.400  0.00  0.00    -0.296 N 
ATOM     22  H   SER A   3      60.656  23.472  25.944  0.00  0.00    +0.150 HD
ATOM     23  O   GLU A   2      58.793  23.578  23.342  0.00  0.00    -0.273 OA
BRANCH  21  24
ATOM     24  CA  SER A   3      58.493  23.669  26.096  0.00  0.00    +0.166 C 
BRANCH  24  25
ATOM     25  C   SER A   3      58.624  24.234  27.484  0.00  0.00    +0.229 C 
ATOM     26  O   SER A   3      59.508  23.836  28.239  0.00  0.00    -0.286 OA
ENDBRANCH  24  25
BRANCH  24  27
ATOM     27  CB  SER A   3      57.765  22.315  26.146  0.00  0.00    +0.165 C 
BRANCH  27  28
ATOM     28  OG  SER A   3      56.501  22.441  26.796  0.00  0.00    -0.380 OA
ATOM     29  H   SER A   3      55.939  23.087  26.300  0.00  0.00    +0.211 HD
ENDBRANCH  27  28
ENDBRANCH  24  27
ENDBRANCH  21  24
ENDBRANCH  19  20
BRANCH  19  30
ATOM     30  CB  GLU A   2      61.583  24.972  23.070  0.00  0.00    +0.041 C 
BRANCH  30  31
ATOM     31  CG  GLU A   2      61.917  25.816  24.280  0.00  0.00    +0.116 C 
BRANCH  31  32
ATOM     32  CD  GLU A   2      62.601  27.104  23.875  0.00  0.00    +0.365 C 
ATOM     33  OE2 GLU A   2      63.834  27.209  24.065  0.00  0.00    -0.246 OA
ATOM     34  OE1 GLU A   2      61.916  27.976  23.296  0.00  0.00    -0.246 OA
ENDBRANCH  31  32
ENDBRANCH  30  31
ENDBRANCH  19  30
ENDBRANCH   3  19
TORSDOF 13
REMARK  Name = ../refined-set-2016/3b25/3b25_pocket.pdb
REMARK  208 active torsions:
REMARK  status: ('A' for Active; 'I' for Inactive)
REMARK    1  A    between atoms: _1  and  _3
REMARK    2  A    between atoms: _3  and  _4
REMARK    3  A    between atoms: _3  and  _6
REMARK    4  A    between atoms: _6  and  _7
REMARK    5  A    between atoms: _13  and  _15
REMARK    6  A    between atoms: _15  and  _16
REMARK    7  A    between atoms: _15  and  _18
REMARK    8  A    between atoms: _18  and  _19
REMARK    9  A    between atoms: _19  and  _20
REMARK   10  A    between atoms: _23  and  _25
REMARK   11  A    between atoms: _25  and  _26
REMARK   12  A    between atoms: _25  and  _28
REMARK   13  A    between atoms: _28  and  _29
REMARK   14  A    between atoms: _32  and  _34
REMARK   15  A    between atoms: _34  and  _35
REMARK   16  A    between atoms: _34  and  _37
REMARK   17  A    between atoms: _37  and  _38
REMARK   18  A    between atoms: _41  and  _43
REMARK   19  A    between atoms: _43  and  _44
REMARK   20  A    between atoms: _43  and  _46
REMARK   21  A    between atoms: _46  and  _47
REMARK   22  A    between atoms: _49  and  _51
REMARK   23  A    between atoms: _51  and  _52
REMARK   24  A    between atoms: _51  and  _54
REMARK   25  A    between atoms: _54  and  _55
REMARK   26  A    between atoms: _60  and  _62
REMARK   27  A    between atoms: _62  and  _63
REMARK   28  A    between atoms: _62  and  _65
REMARK   29  A    between atoms: _65  and  _66
REMARK   30  A    between atoms: _68  and  _70
REMARK   31  A    between atoms: _70  and  _71
REMARK   32  A    between atoms: _70  and  _73
REMARK   33  A    between atoms: _73  and  _74
REMARK   34  A    between atoms: _76  and  _78
REMARK   35  A    between atoms: _78  and  _79
REMARK   36  A    between atoms: _78  and  _81
REMARK   37  A    between atoms: _81  and  _82
REMARK   38  A    between atoms: _85  and  _87
REMARK   39  A    between atoms: _87  and  _88
REMARK   40  A    between atoms: _91  and  _93
REMARK   41  A    between atoms: _93  and  _94
REMARK   42  A    between atoms: _93  and  _96
REMARK   43  A    between atoms: _96  and  _97
REMARK   44  A    between atoms: _100  and  _102
REMARK   45  A    between atoms: _102  and  _103
REMARK   46  A    between atoms: _102  and  _105
REMARK   47  A    between atoms: _105  and  _106
REMARK   48  A    between atoms: _106  and  _107
REMARK   49  A    between atoms: _107  and  _108
REMARK   50  A    between atoms: _108  and  _109
REMARK   51  A    between atoms: _113  and  _115
REMARK   52  A    between atoms: _115  and  _116
REMARK   53  A    between atoms: _115  and  _118
REMARK   54  A    between atoms: _118  and  _119
REMARK   55  A    between atoms: _122  and  _124
REMARK   56  A    between atoms: _124  and  _125
REMARK   57  A    between atoms: _124  and  _127
REMARK   58  A    between atoms: _127  and  _128
REMARK   59  A    between atoms: _131  and  _133
REMARK   60  A    between atoms: _133  and  _134
REMARK   61  A    between atoms: _133  and  _136
REMARK   62  A    between atoms: _136  and  _137
REMARK   63  A    between atoms: _140  and  _142
REMARK   64  A    between atoms: _142  and  _143
REMARK   65  A    between atoms: _142  and  _145
REMARK   66  A    between atoms: _148  and  _150
REMARK   67  A    between atoms: _150  and  _151
REMARK   68  A    between atoms: _150  and  _153
REMARK   69  A    between atoms: _153  and  _154
REMARK   70  A    between atoms: _157  and  _159
REMARK   71  A    between atoms: _159  and  _160
REMARK   72  A    between atoms: _159  and  _162
REMARK   73  A    between atoms: _162  and  _163
REMARK   74  A    between atoms: _166  and  _168
REMARK   75  A    between atoms: _168  and  _169
REMARK   76  A    between atoms: _171  and  _173
REMARK   77  A    between atoms: _173  and  _174
REMARK   78  A    between atoms: _173  and  _176
REMARK   79  A    between atoms: _176  and  _177
REMARK   80  A    between atoms: _180  and  _182
REMARK   81  A    between atoms: _182  and  _183
REMARK   82  A    between atoms: _185  and  _187
REMARK   83  A    between atoms: _187  and  _188
REMARK   84  A    between atoms: _187  and  _190
REMARK   85  A    between atoms: _190  and  _191
REMARK   86  A    between atoms: _191  and  _192
REMARK   87  A    between atoms: _194  and  _196
REMARK   88  A    between atoms: _196  and  _197
REMARK   89  A    between atoms: _196  and  _199
REMARK   90  A    between atoms: _199  and  _200
REMARK   91  A    between atoms: _203  and  _205
REMARK   92  A    between atoms: _205  and  _206
REMARK   93  A    between atoms: _205  and  _208
REMARK   94  A    between atoms: _208  and  _209
REMARK   95  A    between atoms: _212  and  _214
REMARK   96  A    between atoms: _214  and  _215
REMARK   97  A    between atoms: _214  and  _217
REMARK   98  A    between atoms: _217  and  _218
REMARK   99  A    between atoms: _221  and  _223
REMARK  100  A    between atoms: _223  and  _224
REMARK  101  A    between atoms: _223  and  _226
REMARK  102  A    between atoms: _226  and  _227
REMARK  103  A    between atoms: _230  and  _232
REMARK  104  A    between atoms: _232  and  _233
REMARK  105  A    between atoms: _232  and  _235
REMARK  106  A    between atoms: _235  and  _236
REMARK  107  A    between atoms: _241  and  _243
REMARK  108  A    between atoms: _243  and  _244
REMARK  109  A    between atoms: _243  and  _246
REMARK  110  A    between atoms: _246  and  _247
REMARK  111  A    between atoms: _250  and  _252
REMARK  112  A    between atoms: _252  and  _253
REMARK  113  A    between atoms: _255  and  _257
REMARK  114  A    between atoms: _257  and  _258
REMARK  115  A    between atoms: _257  and  _260
REMARK  116  A    between atoms: _260  and  _261
REMARK  117  A    between atoms: _264  and  _266
REMARK  118  A    between atoms: _266  and  _267
REMARK  119  A    between atoms: _270  and  _272
REMARK  120  A    between atoms: _272  and  _273
REMARK  121  A    between atoms: _275  and  _277
REMARK  122  A    between atoms: _277  and  _278
REMARK  123  A    between atoms: _277  and  _280
REMARK  124  A    between atoms: _283  and  _285
REMARK  125  A    between atoms: _285  and  _286
REMARK  126  A    between atoms: _288  and  _290
REMARK  127  A    between atoms: _290  and  _291
REMARK  128  A    between atoms: _290  and  _293
REMARK  129  A    between atoms: _293  and  _294
REMARK  130  A    between atoms: _300  and  _302
REMARK  131  A    between atoms: _302  and  _303
REMARK  132  A    between atoms: _302  and  _305
REMARK  133  A    between atoms: _305  and  _306
REMARK  134  A    between atoms: _311  and  _312
REMARK  135  A    between atoms: _314  and  _316
REMARK  136  A    between atoms: _316  and  _317
REMARK  137  A    between atoms: _316  and  _319
REMARK  138  A    between atoms: _319  and  _320
REMARK  139  A    between atoms: _325  and  _326
REMARK  140  A    between atoms: _328  and  _330
REMARK  141  A    between atoms: _330  and  _331
REMARK  142  A    between atoms: _330  and  _333
REMARK  143  A    between atoms: _336  and  _338
REMARK  144  A    between atoms: _338  and  _339
REMARK  145  A    between atoms: _338  and  _341
REMARK  146  A    between atoms: _341  and  _342
REMARK  147  A    between atoms: _345  and  _347
REMARK  148  A    between atoms: _347  and  _348
REMARK  149  A    between atoms: _347  and  _350
REMARK  150  A    between atoms: _353  and  _355
REMARK  151  A    between atoms: _355  and  _356
REMARK  152  A    between atoms: _355  and  _358
REMARK  153  A    between atoms: _358  and  _359
REMARK  154  A    between atoms: _362  and  _364
REMARK  155  A    between atoms: _364  and  _365
REMARK  156  A    between atoms: _364  and  _367
REMARK  157  A    between atoms: _367  and  _368
REMARK  158  A    between atoms: _371  and  _373
REMARK  159  A    between atoms: _373  and  _374
REMARK  160  A    between atoms: _373  and  _376
REMARK  161  A    between atoms: _376  and  _377
REMARK  162  A    between atoms: _377  and  _378
REMARK  163  A    between atoms: _378  and  _379
REMARK  164  A    between atoms: _379  and  _380
REMARK  165  A    between atoms: _384  and  _386
REMARK  166  A    between atoms: _386  and  _387
REMARK  167  A    between atoms: _386  and  _389
REMARK  168  A    between atoms: _389  and  _390
REMARK  169  A    between atoms: _395  and  _397
REMARK  170  A    between atoms: _397  and  _398
REMARK  171  A    between atoms: _397  and  _400
REMARK  172  A    between atoms: _400  and  _401
REMARK  173  A    between atoms: _411  and  _413
REMARK  174  A    between atoms: _413  and  _414
REMARK  175  A    between atoms: _413  and  _416
REMARK  176  A    between atoms: _416  and  _417
REMARK  177  A    between atoms: _417  and  _418
REMARK  178  A    between atoms: _421  and  _423
REMARK  179  A    between atoms: _423  and  _424
REMARK  180  A    between atoms: _423  and  _426
REMARK  181  A    between atoms: _426  and  _427
REMARK  182  A    between atoms: _429  and  _431
REMARK  183  A    between atoms: _431  and  _432
REMARK  184  A    between atoms: _431  and  _434
REMARK  185  A    between atoms: _434  and  _435
REMARK  186  A    between atoms: _441  and  _443
REMARK  187  A    between atoms: _443  and  _444
REMARK  188  A    between atoms: _443  and  _446
REMARK  189  A    between atoms: _446  and  _447
REMARK  190  A    between atoms: _450  and  _452
REMARK  191  A    between atoms: _452  and  _453
REMARK  192  A    between atoms: _452  and  _455
REMARK  193  A    between atoms: _458  and  _460
REMARK  194  A    between atoms: _460  and  _461
REMARK  195  A    between atoms: _463  and  _465
REMARK  196  A    between atoms: _465  and  _466
REMARK  197  A    between atoms: _465  and  _468
REMARK  198  A    between atoms: _468  and  _469
REMARK  199  A    between atoms: _472  and  _474
REMARK  200  A    between atoms: _474  and  _475
REMARK  201  A    between atoms: _474  and  _477
REMARK  202  A    between atoms: _477  and  _478
REMARK  203  A    between atoms: _478  and  _479
REMARK  204  A    between atoms: _479  and  _480
REMARK  205  A    between atoms: _480  and  _481
REMARK  206  A    between atoms: _485  and  _487
REMARK  207  A    between atoms: _487  and  _488
REMARK  208  A    between atoms: _487  and  _490
REMARK                            x       y       z     vdW  Elec       q    Type
REMARK                         _______ _______ _______ _____ _____    ______ ____
ROOT
ATOM      1  CA  THR A   2      57.566  24.059  19.679  0.00  0.00    +0.176 C 
ENDROOT
BRANCH   1   3
ATOM      2  C   PHE A   1      56.010  23.134  21.290  0.00  0.00    +0.239 C 
ATOM      3  N   THR A   2      57.232  23.594  21.026  0.00  0.00    -0.295 N 
ATOM      4  H   THR A   2      57.950  23.623  21.778  0.00  0.00    +0.150 HD
ATOM      5  O   PHE A   1      55.093  23.123  20.457  0.00  0.00    -0.274 OA
BRANCH   2   6
ATOM      6  CA  PHE A   1      55.778  22.593  22.690  0.00  0.00    +0.149 C 
BRANCH   6   7
ATOM      7  N   PHE A   1      54.341  22.595  22.932  0.00  0.00    -0.238 NA
ATOM      8  H   PHE A   1      53.707  22.352  22.144  0.00  0.00    +0.142 HD
ENDBRANCH   6   7
BRANCH   6   9
ATOM      9  CB  PHE A   1      56.375  21.175  22.839  0.00  0.00    +0.053 C 
BRANCH   9  10
ATOM     10  CG  PHE A   1      55.918  20.110  21.870  0.00  0.00    -0.020 A 
ATOM     11  CD2 PHE A   1      54.813  19.313  22.157  0.00  0.00    -0.004 A 
ATOM     12  CE2 PHE A   1      54.417  18.294  21.283  0.00  0.00    -0.000 A 
ATOM     13  CZ  PHE A   1      55.109  18.080  20.107  0.00  0.00    -0.000 A 
ATOM     14  CE1 PHE A   1      56.188  18.881  19.792  0.00  0.00    -0.000 A 
ATOM     15  CD1 PHE A   1      56.600  19.888  20.673  0.00  0.00    -0.004 A 
ENDBRANCH   9  10
ENDBRANCH   6   9
ENDBRANCH   2   6
ENDBRANCH   1   3
BRANCH   1  16
ATOM     16  C   THR A   2      58.698  23.220  19.103  0.00  0.00    +0.243 C 
ATOM     17  O   THR A   2      59.488  22.644  19.848  0.00  0.00    -0.273 OA
ATOM     18  N   VAL A   3      58.812  23.205  17.771  0.00  0.00    -0.298 N 
ATOM     19  H   VAL A   3      58.090  23.698  17.208  0.00  0.00    +0.150 HD
BRANCH  18  20
ATOM     20  CA  VAL A   3      59.908  22.525  17.062  0.00  0.00    +0.137 C 
BRANCH  20  21
ATOM     21  CB  VAL A   3      59.528  21.123  16.510  0.00  0.00    +0.026 C 
ATOM     22  CG2 VAL A   3      59.129  20.163  17.623  0.00  0.00    +0.002 C 
ATOM     23  CG1 VAL A   3      60.678  20.518  15.672  0.00  0.00    +0.002 C 
ENDBRANCH  20  21
BRANCH  20  24
ATOM     24  C   VAL A   3      60.307  23.476  15.931  0.00  0.00    +0.227 C 
ATOM     25  O   VAL A   3      59.432  24.020  15.243  0.00  0.00    -0.286 OA
ENDBRANCH  20  24
ENDBRANCH  18  20
ENDBRANCH   1  16
BRANCH   1  26
ATOM     26  CB  THR A   2      57.979  25.530  19.671  0.00  0.00    +0.137 C 
ATOM     27  CG2 THR A   2      56.859  26.495  20.138  0.00  0.00    +0.034 C 
BRANCH  26  28
ATOM     28  OG1 THR A   2      59.188  25.716  20.415  0.00  0.00    -0.382 OA
ATOM     29  HG1 THR A   2      59.911  25.176  20.008  0.00  0.00    +0.210 HD
ENDBRANCH  26  28
ENDBRANCH   1  26
TORSDOF 11
REMARK  Name = ../refined-set-2016/3b25/3b25_pocket.pdb
REMARK  208 active torsions:
REMARK  status: ('A' for Active; 'I' for Inactive)
REMARK    1  A    between atoms: _1  and  _3
REMARK    2  A    between atoms: _3  and  _4
REMARK    3  A    between atoms: _3  and  _6
REMARK    4  A    between atoms: _6  and  _7
REMARK    5  A    between atoms: _13  and  _15
REMARK    6  A    between atoms: _15  and  _16
REMARK    7  A    between atoms: _15  and  _18
REMARK    8  A    between atoms: _18  and  _19
REMARK    9  A    between atoms: _19  and  _20
REMARK   10  A    between atoms: _23  and  _25
REMARK   11  A    between atoms: _25  and  _26
REMARK   12  A    between atoms: _25  and  _28
REMARK   13  A    between atoms: _28  and  _29
REMARK   14  A    between atoms: _32  and  _34
REMARK   15  A    between atoms: _34  and  _35
REMARK   16  A    between atoms: _34  and  _37
REMARK   17  A    between atoms: _37  and  _38
REMARK   18  A    between atoms: _41  and  _43
REMARK   19  A    between atoms: _43  and  _44
REMARK   20  A    between atoms: _43  and  _46
REMARK   21  A    between atoms: _46  and  _47
REMARK   22  A    between atoms: _49  and  _51
REMARK   23  A    between atoms: _51  and  _52
REMARK   24  A    between atoms: _51  and  _54
REMARK   25  A    between atoms: _54  and  _55
REMARK   26  A    between atoms: _60  and  _62
REMARK   27  A    between atoms: _62  and  _63
REMARK   28  A    between atoms: _62  and  _65
REMARK   29  A    between atoms: _65  and  _66
REMARK   30  A    between atoms: _68  and  _70
REMARK   31  A    between atoms: _70  and  _71
REMARK   32  A    between atoms: _70  and  _73
REMARK   33  A    between atoms: _73  and  _74
REMARK   34  A    between atoms: _76  and  _78
REMARK   35  A    between atoms: _78  and  _79
REMARK   36  A    between atoms: _78  and  _81
REMARK   37  A    between atoms: _81  and  _82
REMARK   38  A    between atoms: _85  and  _87
REMARK   39  A    between atoms: _87  and  _88
REMARK   40  A    between atoms: _91  and  _93
REMARK   41  A    between atoms: _93  and  _94
REMARK   42  A    between atoms: _93  and  _96
REMARK   43  A    between atoms: _96  and  _97
REMARK   44  A    between atoms: _100  and  _102
REMARK   45  A    between atoms: _102  and  _103
REMARK   46  A    between atoms: _102  and  _105
REMARK   47  A    between atoms: _105  and  _106
REMARK   48  A    between atoms: _106  and  _107
REMARK   49  A    between atoms: _107  and  _108
REMARK   50  A    between atoms: _108  and  _109
REMARK   51  A    between atoms: _113  and  _115
REMARK   52  A    between atoms: _115  and  _116
REMARK   53  A    between atoms: _115  and  _118
REMARK   54  A    between atoms: _118  and  _119
REMARK   55  A    between atoms: _122  and  _124
REMARK   56  A    between atoms: _124  and  _125
REMARK   57  A    between atoms: _124  and  _127
REMARK   58  A    between atoms: _127  and  _128
REMARK   59  A    between atoms: _131  and  _133
REMARK   60  A    between atoms: _133  and  _134
REMARK   61  A    between atoms: _133  and  _136
REMARK   62  A    between atoms: _136  and  _137
REMARK   63  A    between atoms: _140  and  _142
REMARK   64  A    between atoms: _142  and  _143
REMARK   65  A    between atoms: _142  and  _145
REMARK   66  A    between atoms: _148  and  _150
REMARK   67  A    between atoms: _150  and  _151
REMARK   68  A    between atoms: _150  and  _153
REMARK   69  A    between atoms: _153  and  _154
REMARK   70  A    between atoms: _157  and  _159
REMARK   71  A    between atoms: _159  and  _160
REMARK   72  A    between atoms: _159  and  _162
REMARK   73  A    between atoms: _162  and  _163
REMARK   74  A    between atoms: _166  and  _168
REMARK   75  A    between atoms: _168  and  _169
REMARK   76  A    between atoms: _171  and  _173
REMARK   77  A    between atoms: _173  and  _174
REMARK   78  A    between atoms: _173  and  _176
REMARK   79  A    between atoms: _176  and  _177
REMARK   80  A    between atoms: _180  and  _182
REMARK   81  A    between atoms: _182  and  _183
REMARK   82  A    between atoms: _185  and  _187
REMARK   83  A    between atoms: _187  and  _188
REMARK   84  A    between atoms: _187  and  _190
REMARK   85  A    between atoms: _190  and  _191
REMARK   86  A    between atoms: _191  and  _192
REMARK   87  A    between atoms: _194  and  _196
REMARK   88  A    between atoms: _196  and  _197
REMARK   89  A    between atoms: _196  and  _199
REMARK   90  A    between atoms: _199  and  _200
REMARK   91  A    between atoms: _203  and  _205
REMARK   92  A    between atoms: _205  and  _206
REMARK   93  A    between atoms: _205  and  _208
REMARK   94  A    between atoms: _208  and  _209
REMARK   95  A    between atoms: _212  and  _214
REMARK   96  A    between atoms: _214  and  _215
REMARK   97  A    between atoms: _214  and  _217
REMARK   98  A    between atoms: _217  and  _218
REMARK   99  A    between atoms: _221  and  _223
REMARK  100  A    between atoms: _223  and  _224
REMARK  101  A    between atoms: _223  and  _226
REMARK  102  A    between atoms: _226  and  _227
REMARK  103  A    between atoms: _230  and  _232
REMARK  104  A    between atoms: _232  and  _233
REMARK  105  A    between atoms: _232  and  _235
REMARK  106  A    between atoms: _235  and  _236
REMARK  107  A    between atoms: _241  and  _243
REMARK  108  A    between atoms: _243  and  _244
REMARK  109  A    between atoms: _243  and  _246
REMARK  110  A    between atoms: _246  and  _247
REMARK  111  A    between atoms: _250  and  _252
REMARK  112  A    between atoms: _252  and  _253
REMARK  113  A    between atoms: _255  and  _257
REMARK  114  A    between atoms: _257  and  _258
REMARK  115  A    between atoms: _257  and  _260
REMARK  116  A    between atoms: _260  and  _261
REMARK  117  A    between atoms: _264  and  _266
REMARK  118  A    between atoms: _266  and  _267
REMARK  119  A    between atoms: _270  and  _272
REMARK  120  A    between atoms: _272  and  _273
REMARK  121  A    between atoms: _275  and  _277
REMARK  122  A    between atoms: _277  and  _278
REMARK  123  A    between atoms: _277  and  _280
REMARK  124  A    between atoms: _283  and  _285
REMARK  125  A    between atoms: _285  and  _286
REMARK  126  A    between atoms: _288  and  _290
REMARK  127  A    between atoms: _290  and  _291
REMARK  128  A    between atoms: _290  and  _293
REMARK  129  A    between atoms: _293  and  _294
REMARK  130  A    between atoms: _300  and  _302
REMARK  131  A    between atoms: _302  and  _303
REMARK  132  A    between atoms: _302  and  _305
REMARK  133  A    between atoms: _305  and  _306
REMARK  134  A    between atoms: _311  and  _312
REMARK  135  A    between atoms: _314  and  _316
REMARK  136  A    between atoms: _316  and  _317
REMARK  137  A    between atoms: _316  and  _319
REMARK  138  A    between atoms: _319  and  _320
REMARK  139  A    between atoms: _325  and  _326
REMARK  140  A    between atoms: _328  and  _330
REMARK  141  A    between atoms: _330  and  _331
REMARK  142  A    between atoms: _330  and  _333
REMARK  143  A    between atoms: _336  and  _338
REMARK  144  A    between atoms: _338  and  _339
REMARK  145  A    between atoms: _338  and  _341
REMARK  146  A    between atoms: _341  and  _342
REMARK  147  A    between atoms: _345  and  _347
REMARK  148  A    between atoms: _347  and  _348
REMARK  149  A    between atoms: _347  and  _350
REMARK  150  A    between atoms: _353  and  _355
REMARK  151  A    between atoms: _355  and  _356
REMARK  152  A    between atoms: _355  and  _358
REMARK  153  A    between atoms: _358  and  _359
REMARK  154  A    between atoms: _362  and  _364
REMARK  155  A    between atoms: _364  and  _365
REMARK  156  A    between atoms: _364  and  _367
REMARK  157  A    between atoms: _367  and  _368
REMARK  158  A    between atoms: _371  and  _373
REMARK  159  A    between atoms: _373  and  _374
REMARK  160  A    between atoms: _373  and  _376
REMARK  161  A    between atoms: _376  and  _377
REMARK  162  A    between atoms: _377  and  _378
REMARK  163  A    between atoms: _378  and  _379
REMARK  164  A    between atoms: _379  and  _380
REMARK  165  A    between atoms: _384  and  _386
REMARK  166  A    between atoms: _386  and  _387
REMARK  167  A    between atoms: _386  and  _389
REMARK  168  A    between atoms: _389  and  _390
REMARK  169  A    between atoms: _395  and  _397
REMARK  170  A    between atoms: _397  and  _398
REMARK  171  A    between atoms: _397  and  _400
REMARK  172  A    between atoms: _400  and  _401
REMARK  173  A    between atoms: _411  and  _413
REMARK  174  A    between atoms: _413  and  _414
REMARK  175  A    between atoms: _413  and  _416
REMARK  176  A    between atoms: _416  and  _417
REMARK  177  A    between atoms: _417  and  _418
REMARK  178  A    between atoms: _421  and  _423
REMARK  179  A    between atoms: _423  and  _424
REMARK  180  A    between atoms: _423  and  _426
REMARK  181  A    between atoms: _426  and  _427
REMARK  182  A    between atoms: _429  and  _431
REMARK  183  A    between atoms: _431  and  _432
REMARK  184  A    between atoms: _431  and  _434
REMARK  185  A    between atoms: _434  and  _435
REMARK  186  A    between atoms: _441  and  _443
REMARK  187  A    between atoms: _443  and  _444
REMARK  188  A    between atoms: _443  and  _446
REMARK  189  A    between atoms: _446  and  _447
REMARK  190  A    between atoms: _450  and  _452
REMARK  191  A    between atoms: _452  and  _453
REMARK  192  A    between atoms: _452  and  _455
REMARK  193  A    between atoms: _458  and  _460
REMARK  194  A    between atoms: _460  and  _461
REMARK  195  A    between atoms: _463  and  _465
REMARK  196  A    between atoms: _465  and  _466
REMARK  197  A    between atoms: _465  and  _468
REMARK  198  A    between atoms: _468  and  _469
REMARK  199  A    between atoms: _472  and  _474
REMARK  200  A    between atoms: _474  and  _475
REMARK  201  A    between atoms: _474  and  _477
REMARK  202  A    between atoms: _477  and  _478
REMARK  203  A    between atoms: _478  and  _479
REMARK  204  A    between atoms: _479  and  _480
REMARK  205  A    between atoms: _480  and  _481
REMARK  206  A    between atoms: _485  and  _487
REMARK  207  A    between atoms: _487  and  _488
REMARK  208  A    between atoms: _487  and  _490
REMARK                            x       y       z     vdW  Elec       q    Type
REMARK                         _______ _______ _______ _____ _____    ______ ____
ROOT
ATOM      1  CA  LYS A   3      71.420  18.117  24.227  0.00  0.00    +0.149 C 
ENDROOT
BRANCH   1   4
ATOM      2  C   THR A   2      71.498  15.933  23.119  0.00  0.00    +0.243 C 
ATOM      3  O   THR A   2      72.320  15.465  23.909  0.00  0.00    -0.273 OA
ATOM      4  N   LYS A   3      71.039  17.179  23.186  0.00  0.00    -0.297 N 
ATOM      5  H   LYS A   3      70.372  17.499  22.455  0.00  0.00    +0.150 HD
BRANCH   2   6
ATOM      6  CA  THR A   2      70.926  15.089  22.015  0.00  0.00    +0.176 C 
BRANCH   6   8
ATOM      7  C   GLY A   1      72.095  14.124  20.094  0.00  0.00    +0.240 C 
ATOM      8  N   THR A   2      71.972  14.280  21.399  0.00  0.00    -0.295 N 
ATOM      9  H   THR A   2      72.656  13.802  22.020  0.00  0.00    +0.150 HD
ATOM     10  O   GLY A   1      71.367  14.679  19.274  0.00  0.00    -0.274 OA
BRANCH   7  11
ATOM     11  CA  GLY A   1      73.205  13.202  19.641  0.00  0.00    +0.169 C 
BRANCH  11  12
ATOM     12  N   GLY A   1      73.524  13.313  18.219  0.00  0.00    -0.236 NA
ATOM     13  H   GLY A   1      72.758  13.291  17.516  0.00  0.00    +0.142 HD
ENDBRANCH  11  12
ENDBRANCH   7  11
ENDBRANCH   6   8
BRANCH   6  14
ATOM     14  CB  THR A   2      69.813  14.169  22.535  0.00  0.00    +0.137 C 
ATOM     15  CG2 THR A   2      68.671  14.937  23.237  0.00  0.00    +0.034 C 
BRANCH  14  16
ATOM     16  OG1 THR A   2      69.275  13.415  21.439  0.00  0.00    -0.382 OA
ATOM     17  HG1 THR A   2      68.905  14.036  20.763  0.00  0.00    +0.210 HD
ENDBRANCH  14  16
ENDBRANCH   6  14
ENDBRANCH   2   6
ENDBRANCH   1   4
BRANCH   1  18
ATOM     18  C   LYS A   3      70.119  18.591  24.906  0.00  0.00    +0.241 C 
ATOM     19  N   VAL A   4      69.962  18.280  26.194  0.00  0.00    -0.298 N 
ATOM     20  H   VAL A   4      70.697  17.700  26.647  0.00  0.00    +0.150 HD
ATOM     21  O   LYS A   3      69.282  19.205  24.254  0.00  0.00    -0.273 OA
BRANCH  19  22
ATOM     22  CA  VAL A   4      68.825  18.701  27.010  0.00  0.00    +0.137 C 
BRANCH  22  23
ATOM     23  CB  VAL A   4      68.279  17.553  27.893  0.00  0.00    +0.026 C 
ATOM     24  CG2 VAL A   4      67.145  18.038  28.792  0.00  0.00    +0.002 C 
ATOM     25  CG1 VAL A   4      67.847  16.355  27.046  0.00  0.00    +0.002 C 
ENDBRANCH  22  23
BRANCH  22  26
ATOM     26  C   VAL A   4      69.262  19.886  27.838  0.00  0.00    +0.227 C 
ATOM     27  O   VAL A   4      70.094  19.743  28.741  0.00  0.00    -0.286 OA
ENDBRANCH  22  26
ENDBRANCH  19  22
ENDBRANCH   1  18
BRANCH   1  28
ATOM     28  CB  LYS A   3      72.178  19.275  23.546  0.00  0.00    +0.029 C 
BRANCH  28  29
ATOM     29  CG  LYS A   3      72.397  20.543  24.313  0.00  0.00    +0.000 C 
BRANCH  29  30
ATOM     30  CD  LYS A   3      73.588  21.340  23.694  0.00  0.00    -0.024 C 
BRANCH  30  31
ATOM     31  CE  LYS A   3      73.402  21.777  22.253  0.00  0.00    -0.086 C 
BRANCH  31  32
ATOM     32  NZ  LYS A   3      74.654  22.352  21.678  0.00  0.00    +0.380 N 
ATOM     33  HZ1 LYS A   3      74.941  23.182  22.236  0.00  0.00    -0.089 HD
ATOM     34  HZ2 LYS A   3      75.408  21.636  21.707  0.00  0.00    -0.089 HD
ATOM     35  HZ3 LYS A   3      74.482  22.637  20.693  0.00  0.00    -0.089 HD
ENDBRANCH  31  32
ENDBRANCH  30  31
ENDBRANCH  29  30
ENDBRANCH  28  29
ENDBRANCH   1  28
TORSDOF 16
REMARK  Name = ../refined-set-2016/3b25/3b25_pocket.pdb
REMARK  208 active torsions:
REMARK  status: ('A' for Active; 'I' for Inactive)
REMARK    1  A    between atoms: _1  and  _3
REMARK    2  A    between atoms: _3  and  _4
REMARK    3  A    between atoms: _3  and  _6
REMARK    4  A    between atoms: _6  and  _7
REMARK    5  A    between atoms: _13  and  _15
REMARK    6  A    between atoms: _15  and  _16
REMARK    7  A    between atoms: _15  and  _18
REMARK    8  A    between atoms: _18  and  _19
REMARK    9  A    between atoms: _19  and  _20
REMARK   10  A    between atoms: _23  and  _25
REMARK   11  A    between atoms: _25  and  _26
REMARK   12  A    between atoms: _25  and  _28
REMARK   13  A    between atoms: _28  and  _29
REMARK   14  A    between atoms: _32  and  _34
REMARK   15  A    between atoms: _34  and  _35
REMARK   16  A    between atoms: _34  and  _37
REMARK   17  A    between atoms: _37  and  _38
REMARK   18  A    between atoms: _41  and  _43
REMARK   19  A    between atoms: _43  and  _44
REMARK   20  A    between atoms: _43  and  _46
REMARK   21  A    between atoms: _46  and  _47
REMARK   22  A    between atoms: _49  and  _51
REMARK   23  A    between atoms: _51  and  _52
REMARK   24  A    between atoms: _51  and  _54
REMARK   25  A    between atoms: _54  and  _55
REMARK   26  A    between atoms: _60  and  _62
REMARK   27  A    between atoms: _62  and  _63
REMARK   28  A    between atoms: _62  and  _65
REMARK   29  A    between atoms: _65  and  _66
REMARK   30  A    between atoms: _68  and  _70
REMARK   31  A    between atoms: _70  and  _71
REMARK   32  A    between atoms: _70  and  _73
REMARK   33  A    between atoms: _73  and  _74
REMARK   34  A    between atoms: _76  and  _78
REMARK   35  A    between atoms: _78  and  _79
REMARK   36  A    between atoms: _78  and  _81
REMARK   37  A    between atoms: _81  and  _82
REMARK   38  A    between atoms: _85  and  _87
REMARK   39  A    between atoms: _87  and  _88
REMARK   40  A    between atoms: _91  and  _93
REMARK   41  A    between atoms: _93  and  _94
REMARK   42  A    between atoms: _93  and  _96
REMARK   43  A    between atoms: _96  and  _97
REMARK   44  A    between atoms: _100  and  _102
REMARK   45  A    between atoms: _102  and  _103
REMARK   46  A    between atoms: _102  and  _105
REMARK   47  A    between atoms: _105  and  _106
REMARK   48  A    between atoms: _106  and  _107
REMARK   49  A    between atoms: _107  and  _108
REMARK   50  A    between atoms: _108  and  _109
REMARK   51  A    between atoms: _113  and  _115
REMARK   52  A    between atoms: _115  and  _116
REMARK   53  A    between atoms: _115  and  _118
REMARK   54  A    between atoms: _118  and  _119
REMARK   55  A    between atoms: _122  and  _124
REMARK   56  A    between atoms: _124  and  _125
REMARK   57  A    between atoms: _124  and  _127
REMARK   58  A    between atoms: _127  and  _128
REMARK   59  A    between atoms: _131  and  _133
REMARK   60  A    between atoms: _133  and  _134
REMARK   61  A    between atoms: _133  and  _136
REMARK   62  A    between atoms: _136  and  _137
REMARK   63  A    between atoms: _140  and  _142
REMARK   64  A    between atoms: _142  and  _143
REMARK   65  A    between atoms: _142  and  _145
REMARK   66  A    between atoms: _148  and  _150
REMARK   67  A    between atoms: _150  and  _151
REMARK   68  A    between atoms: _150  and  _153
REMARK   69  A    between atoms: _153  and  _154
REMARK   70  A    between atoms: _157  and  _159
REMARK   71  A    between atoms: _159  and  _160
REMARK   72  A    between atoms: _159  and  _162
REMARK   73  A    between atoms: _162  and  _163
REMARK   74  A    between atoms: _166  and  _168
REMARK   75  A    between atoms: _168  and  _169
REMARK   76  A    between atoms: _171  and  _173
REMARK   77  A    between atoms: _173  and  _174
REMARK   78  A    between atoms: _173  and  _176
REMARK   79  A    between atoms: _176  and  _177
REMARK   80  A    between atoms: _180  and  _182
REMARK   81  A    between atoms: _182  and  _183
REMARK   82  A    between atoms: _185  and  _187
REMARK   83  A    between atoms: _187  and  _188
REMARK   84  A    between atoms: _187  and  _190
REMARK   85  A    between atoms: _190  and  _191
REMARK   86  A    between atoms: _191  and  _192
REMARK   87  A    between atoms: _194  and  _196
REMARK   88  A    between atoms: _196  and  _197
REMARK   89  A    between atoms: _196  and  _199
REMARK   90  A    between atoms: _199  and  _200
REMARK   91  A    between atoms: _203  and  _205
REMARK   92  A    between atoms: _205  and  _206
REMARK   93  A    between atoms: _205  and  _208
REMARK   94  A    between atoms: _208  and  _209
REMARK   95  A    between atoms: _212  and  _214
REMARK   96  A    between atoms: _214  and  _215
REMARK   97  A    between atoms: _214  and  _217
REMARK   98  A    between atoms: _217  and  _218
REMARK   99  A    between atoms: _221  and  _223
REMARK  100  A    between atoms: _223  and  _224
REMARK  101  A    between atoms: _223  and  _226
REMARK  102  A    between atoms: _226  and  _227
REMARK  103  A    between atoms: _230  and  _232
REMARK  104  A    between atoms: _232  and  _233
REMARK  105  A    between atoms: _232  and  _235
REMARK  106  A    between atoms: _235  and  _236
REMARK  107  A    between atoms: _241  and  _243
REMARK  108  A    between atoms: _243  and  _244
REMARK  109  A    between atoms: _243  and  _246
REMARK  110  A    between atoms: _246  and  _247
REMARK  111  A    between atoms: _250  and  _252
REMARK  112  A    between atoms: _252  and  _253
REMARK  113  A    between atoms: _255  and  _257
REMARK  114  A    between atoms: _257  and  _258
REMARK  115  A    between atoms: _257  and  _260
REMARK  116  A    between atoms: _260  and  _261
REMARK  117  A    between atoms: _264  and  _266
REMARK  118  A    between atoms: _266  and  _267
REMARK  119  A    between atoms: _270  and  _272
REMARK  120  A    between atoms: _272  and  _273
REMARK  121  A    between atoms: _275  and  _277
REMARK  122  A    between atoms: _277  and  _278
REMARK  123  A    between atoms: _277  and  _280
REMARK  124  A    between atoms: _283  and  _285
REMARK  125  A    between atoms: _285  and  _286
REMARK  126  A    between atoms: _288  and  _290
REMARK  127  A    between atoms: _290  and  _291
REMARK  128  A    between atoms: _290  and  _293
REMARK  129  A    between atoms: _293  and  _294
REMARK  130  A    between atoms: _300  and  _302
REMARK  131  A    between atoms: _302  and  _303
REMARK  132  A    between atoms: _302  and  _305
REMARK  133  A    between atoms: _305  and  _306
REMARK  134  A    between atoms: _311  and  _312
REMARK  135  A    between atoms: _314  and  _316
REMARK  136  A    between atoms: _316  and  _317
REMARK  137  A    between atoms: _316  and  _319
REMARK  138  A    between atoms: _319  and  _320
REMARK  139  A    between atoms: _325  and  _326
REMARK  140  A    between atoms: _328  and  _330
REMARK  141  A    between atoms: _330  and  _331
REMARK  142  A    between atoms: _330  and  _333
REMARK  143  A    between atoms: _336  and  _338
REMARK  144  A    between atoms: _338  and  _339
REMARK  145  A    between atoms: _338  and  _341
REMARK  146  A    between atoms: _341  and  _342
REMARK  147  A    between atoms: _345  and  _347
REMARK  148  A    between atoms: _347  and  _348
REMARK  149  A    between atoms: _347  and  _350
REMARK  150  A    between atoms: _353  and  _355
REMARK  151  A    between atoms: _355  and  _356
REMARK  152  A    between atoms: _355  and  _358
REMARK  153  A    between atoms: _358  and  _359
REMARK  154  A    between atoms: _362  and  _364
REMARK  155  A    between atoms: _364  and  _365
REMARK  156  A    between atoms: _364  and  _367
REMARK  157  A    between atoms: _367  and  _368
REMARK  158  A    between atoms: _371  and  _373
REMARK  159  A    between atoms: _373  and  _374
REMARK  160  A    between atoms: _373  and  _376
REMARK  161  A    between atoms: _376  and  _377
REMARK  162  A    between atoms: _377  and  _378
REMARK  163  A    between atoms: _378  and  _379
REMARK  164  A    between atoms: _379  and  _380
REMARK  165  A    between atoms: _384  and  _386
REMARK  166  A    between atoms: _386  and  _387
REMARK  167  A    between atoms: _386  and  _389
REMARK  168  A    between atoms: _389  and  _390
REMARK  169  A    between atoms: _395  and  _397
REMARK  170  A    between atoms: _397  and  _398
REMARK  171  A    between atoms: _397  and  _400
REMARK  172  A    between atoms: _400  and  _401
REMARK  173  A    between atoms: _411  and  _413
REMARK  174  A    between atoms: _413  and  _414
REMARK  175  A    between atoms: _413  and  _416
REMARK  176  A    between atoms: _416  and  _417
REMARK  177  A    between atoms: _417  and  _418
REMARK  178  A    between atoms: _421  and  _423
REMARK  179  A    between atoms: _423  and  _424
REMARK  180  A    between atoms: _423  and  _426
REMARK  181  A    between atoms: _426  and  _427
REMARK  182  A    between atoms: _429  and  _431
REMARK  183  A    between atoms: _431  and  _432
REMARK  184  A    between atoms: _431  and  _434
REMARK  185  A    between atoms: _434  and  _435
REMARK  186  A    between atoms: _441  and  _443
REMARK  187  A    between atoms: _443  and  _444
REMARK  188  A    between atoms: _443  and  _446
REMARK  189  A    between atoms: _446  and  _447
REMARK  190  A    between atoms: _450  and  _452
REMARK  191  A    between atoms: _452  and  _453
REMARK  192  A    between atoms: _452  and  _455
REMARK  193  A    between atoms: _458  and  _460
REMARK  194  A    between atoms: _460  and  _461
REMARK  195  A    between atoms: _463  and  _465
REMARK  196  A    between atoms: _465  and  _466
REMARK  197  A    between atoms: _465  and  _468
REMARK  198  A    between atoms: _468  and  _469
REMARK  199  A    between atoms: _472  and  _474
REMARK  200  A    between atoms: _474  and  _475
REMARK  201  A    between atoms: _474  and  _477
REMARK  202  A    between atoms: _477  and  _478
REMARK  203  A    between atoms: _478  and  _479
REMARK  204  A    between atoms: _479  and  _480
REMARK  205  A    between atoms: _480  and  _481
REMARK  206  A    between atoms: _485  and  _487
REMARK  207  A    between atoms: _487  and  _488
REMARK  208  A    between atoms: _487  and  _490
REMARK                            x       y       z     vdW  Elec       q    Type
REMARK                         _______ _______ _______ _____ _____    ______ ____
ROOT
ATOM      1  O   HOH     1      70.798  14.506  26.477  0.00  0.00    +0.000 OA
ENDROOT
TORSDOF 0
REMARK  Name = ../refined-set-2016/3b25/3b25_pocket.pdb
REMARK  208 active torsions:
REMARK  status: ('A' for Active; 'I' for Inactive)
REMARK    1  A    between atoms: _1  and  _3
REMARK    2  A    between atoms: _3  and  _4
REMARK    3  A    between atoms: _3  and  _6
REMARK    4  A    between atoms: _6  and  _7
REMARK    5  A    between atoms: _13  and  _15
REMARK    6  A    between atoms: _15  and  _16
REMARK    7  A    between atoms: _15  and  _18
REMARK    8  A    between atoms: _18  and  _19
REMARK    9  A    between atoms: _19  and  _20
REMARK   10  A    between atoms: _23  and  _25
REMARK   11  A    between atoms: _25  and  _26
REMARK   12  A    between atoms: _25  and  _28
REMARK   13  A    between atoms: _28  and  _29
REMARK   14  A    between atoms: _32  and  _34
REMARK   15  A    between atoms: _34  and  _35
REMARK   16  A    between atoms: _34  and  _37
REMARK   17  A    between atoms: _37  and  _38
REMARK   18  A    between atoms: _41  and  _43
REMARK   19  A    between atoms: _43  and  _44
REMARK   20  A    between atoms: _43  and  _46
REMARK   21  A    between atoms: _46  and  _47
REMARK   22  A    between atoms: _49  and  _51
REMARK   23  A    between atoms: _51  and  _52
REMARK   24  A    between atoms: _51  and  _54
REMARK   25  A    between atoms: _54  and  _55
REMARK   26  A    between atoms: _60  and  _62
REMARK   27  A    between atoms: _62  and  _63
REMARK   28  A    between atoms: _62  and  _65
REMARK   29  A    between atoms: _65  and  _66
REMARK   30  A    between atoms: _68  and  _70
REMARK   31  A    between atoms: _70  and  _71
REMARK   32  A    between atoms: _70  and  _73
REMARK   33  A    between atoms: _73  and  _74
REMARK   34  A    between atoms: _76  and  _78
REMARK   35  A    between atoms: _78  and  _79
REMARK   36  A    between atoms: _78  and  _81
REMARK   37  A    between atoms: _81  and  _82
REMARK   38  A    between atoms: _85  and  _87
REMARK   39  A    between atoms: _87  and  _88
REMARK   40  A    between atoms: _91  and  _93
REMARK   41  A    between atoms: _93  and  _94
REMARK   42  A    between atoms: _93  and  _96
REMARK   43  A    between atoms: _96  and  _97
REMARK   44  A    between atoms: _100  and  _102
REMARK   45  A    between atoms: _102  and  _103
REMARK   46  A    between atoms: _102  and  _105
REMARK   47  A    between atoms: _105  and  _106
REMARK   48  A    between atoms: _106  and  _107
REMARK   49  A    between atoms: _107  and  _108
REMARK   50  A    between atoms: _108  and  _109
REMARK   51  A    between atoms: _113  and  _115
REMARK   52  A    between atoms: _115  and  _116
REMARK   53  A    between atoms: _115  and  _118
REMARK   54  A    between atoms: _118  and  _119
REMARK   55  A    between atoms: _122  and  _124
REMARK   56  A    between atoms: _124  and  _125
REMARK   57  A    between atoms: _124  and  _127
REMARK   58  A    between atoms: _127  and  _128
REMARK   59  A    between atoms: _131  and  _133
REMARK   60  A    between atoms: _133  and  _134
REMARK   61  A    between atoms: _133  and  _136
REMARK   62  A    between atoms: _136  and  _137
REMARK   63  A    between atoms: _140  and  _142
REMARK   64  A    between atoms: _142  and  _143
REMARK   65  A    between atoms: _142  and  _145
REMARK   66  A    between atoms: _148  and  _150
REMARK   67  A    between atoms: _150  and  _151
REMARK   68  A    between atoms: _150  and  _153
REMARK   69  A    between atoms: _153  and  _154
REMARK   70  A    between atoms: _157  and  _159
REMARK   71  A    between atoms: _159  and  _160
REMARK   72  A    between atoms: _159  and  _162
REMARK   73  A    between atoms: _162  and  _163
REMARK   74  A    between atoms: _166  and  _168
REMARK   75  A    between atoms: _168  and  _169
REMARK   76  A    between atoms: _171  and  _173
REMARK   77  A    between atoms: _173  and  _174
REMARK   78  A    between atoms: _173  and  _176
REMARK   79  A    between atoms: _176  and  _177
REMARK   80  A    between atoms: _180  and  _182
REMARK   81  A    between atoms: _182  and  _183
REMARK   82  A    between atoms: _185  and  _187
REMARK   83  A    between atoms: _187  and  _188
REMARK   84  A    between atoms: _187  and  _190
REMARK   85  A    between atoms: _190  and  _191
REMARK   86  A    between atoms: _191  and  _192
REMARK   87  A    between atoms: _194  and  _196
REMARK   88  A    between atoms: _196  and  _197
REMARK   89  A    between atoms: _196  and  _199
REMARK   90  A    between atoms: _199  and  _200
REMARK   91  A    between atoms: _203  and  _205
REMARK   92  A    between atoms: _205  and  _206
REMARK   93  A    between atoms: _205  and  _208
REMARK   94  A    between atoms: _208  and  _209
REMARK   95  A    between atoms: _212  and  _214
REMARK   96  A    between atoms: _214  and  _215
REMARK   97  A    between atoms: _214  and  _217
REMARK   98  A    between atoms: _217  and  _218
REMARK   99  A    between atoms: _221  and  _223
REMARK  100  A    between atoms: _223  and  _224
REMARK  101  A    between atoms: _223  and  _226
REMARK  102  A    between atoms: _226  and  _227
REMARK  103  A    between atoms: _230  and  _232
REMARK  104  A    between atoms: _232  and  _233
REMARK  105  A    between atoms: _232  and  _235
REMARK  106  A    between atoms: _235  and  _236
REMARK  107  A    between atoms: _241  and  _243
REMARK  108  A    between atoms: _243  and  _244
REMARK  109  A    between atoms: _243  and  _246
REMARK  110  A    between atoms: _246  and  _247
REMARK  111  A    between atoms: _250  and  _252
REMARK  112  A    between atoms: _252  and  _253
REMARK  113  A    between atoms: _255  and  _257
REMARK  114  A    between atoms: _257  and  _258
REMARK  115  A    between atoms: _257  and  _260
REMARK  116  A    between atoms: _260  and  _261
REMARK  117  A    between atoms: _264  and  _266
REMARK  118  A    between atoms: _266  and  _267
REMARK  119  A    between atoms: _270  and  _272
REMARK  120  A    between atoms: _272  and  _273
REMARK  121  A    between atoms: _275  and  _277
REMARK  122  A    between atoms: _277  and  _278
REMARK  123  A    between atoms: _277  and  _280
REMARK  124  A    between atoms: _283  and  _285
REMARK  125  A    between atoms: _285  and  _286
REMARK  126  A    between atoms: _288  and  _290
REMARK  127  A    between atoms: _290  and  _291
REMARK  128  A    between atoms: _290  and  _293
REMARK  129  A    between atoms: _293  and  _294
REMARK  130  A    between atoms: _300  and  _302
REMARK  131  A    between atoms: _302  and  _303
REMARK  132  A    between atoms: _302  and  _305
REMARK  133  A    between atoms: _305  and  _306
REMARK  134  A    between atoms: _311  and  _312
REMARK  135  A    between atoms: _314  and  _316
REMARK  136  A    between atoms: _316  and  _317
REMARK  137  A    between atoms: _316  and  _319
REMARK  138  A    between atoms: _319  and  _320
REMARK  139  A    between atoms: _325  and  _326
REMARK  140  A    between atoms: _328  and  _330
REMARK  141  A    between atoms: _330  and  _331
REMARK  142  A    between atoms: _330  and  _333
REMARK  143  A    between atoms: _336  and  _338
REMARK  144  A    between atoms: _338  and  _339
REMARK  145  A    between atoms: _338  and  _341
REMARK  146  A    between atoms: _341  and  _342
REMARK  147  A    between atoms: _345  and  _347
REMARK  148  A    between atoms: _347  and  _348
REMARK  149  A    between atoms: _347  and  _350
REMARK  150  A    between atoms: _353  and  _355
REMARK  151  A    between atoms: _355  and  _356
REMARK  152  A    between atoms: _355  and  _358
REMARK  153  A    between atoms: _358  and  _359
REMARK  154  A    between atoms: _362  and  _364
REMARK  155  A    between atoms: _364  and  _365
REMARK  156  A    between atoms: _364  and  _367
REMARK  157  A    between atoms: _367  and  _368
REMARK  158  A    between atoms: _371  and  _373
REMARK  159  A    between atoms: _373  and  _374
REMARK  160  A    between atoms: _373  and  _376
REMARK  161  A    between atoms: _376  and  _377
REMARK  162  A    between atoms: _377  and  _378
REMARK  163  A    between atoms: _378  and  _379
REMARK  164  A    between atoms: _379  and  _380
REMARK  165  A    between atoms: _384  and  _386
REMARK  166  A    between atoms: _386  and  _387
REMARK  167  A    between atoms: _386  and  _389
REMARK  168  A    between atoms: _389  and  _390
REMARK  169  A    between atoms: _395  and  _397
REMARK  170  A    between atoms: _397  and  _398
REMARK  171  A    between atoms: _397  and  _400
REMARK  172  A    between atoms: _400  and  _401
REMARK  173  A    between atoms: _411  and  _413
REMARK  174  A    between atoms: _413  and  _414
REMARK  175  A    between atoms: _413  and  _416
REMARK  176  A    between atoms: _416  and  _417
REMARK  177  A    between atoms: _417  and  _418
REMARK  178  A    between atoms: _421  and  _423
REMARK  179  A    between atoms: _423  and  _424
REMARK  180  A    between atoms: _423  and  _426
REMARK  181  A    between atoms: _426  and  _427
REMARK  182  A    between atoms: _429  and  _431
REMARK  183  A    between atoms: _431  and  _432
REMARK  184  A    between atoms: _431  and  _434
REMARK  185  A    between atoms: _434  and  _435
REMARK  186  A    between atoms: _441  and  _443
REMARK  187  A    between atoms: _443  and  _444
REMARK  188  A    between atoms: _443  and  _446
REMARK  189  A    between atoms: _446  and  _447
REMARK  190  A    between atoms: _450  and  _452
REMARK  191  A    between atoms: _452  and  _453
REMARK  192  A    between atoms: _452  and  _455
REMARK  193  A    between atoms: _458  and  _460
REMARK  194  A    between atoms: _460  and  _461
REMARK  195  A    between atoms: _463  and  _465
REMARK  196  A    between atoms: _465  and  _466
REMARK  197  A    between atoms: _465  and  _468
REMARK  198  A    between atoms: _468  and  _469
REMARK  199  A    between atoms: _472  and  _474
REMARK  200  A    between atoms: _474  and  _475
REMARK  201  A    between atoms: _474  and  _477
REMARK  202  A    between atoms: _477  and  _478
REMARK  203  A    between atoms: _478  and  _479
REMARK  204  A    between atoms: _479  and  _480
REMARK  205  A    between atoms: _480  and  _481
REMARK  206  A    between atoms: _485  and  _487
REMARK  207  A    between atoms: _487  and  _488
REMARK  208  A    between atoms: _487  and  _490
REMARK                            x       y       z     vdW  Elec       q    Type
REMARK                         _______ _______ _______ _____ _____    ______ ____
ROOT
ATOM      1  O   HOH     1      69.148  13.152  28.262  0.00  0.00    +0.000 OA
ENDROOT
TORSDOF 0
REMARK  Name = ../refined-set-2016/3b25/3b25_pocket.pdb
REMARK  208 active torsions:
REMARK  status: ('A' for Active; 'I' for Inactive)
REMARK    1  A    between atoms: _1  and  _3
REMARK    2  A    between atoms: _3  and  _4
REMARK    3  A    between atoms: _3  and  _6
REMARK    4  A    between atoms: _6  and  _7
REMARK    5  A    between atoms: _13  and  _15
REMARK    6  A    between atoms: _15  and  _16
REMARK    7  A    between atoms: _15  and  _18
REMARK    8  A    between atoms: _18  and  _19
REMARK    9  A    between atoms: _19  and  _20
REMARK   10  A    between atoms: _23  and  _25
REMARK   11  A    between atoms: _25  and  _26
REMARK   12  A    between atoms: _25  and  _28
REMARK   13  A    between atoms: _28  and  _29
REMARK   14  A    between atoms: _32  and  _34
REMARK   15  A    between atoms: _34  and  _35
REMARK   16  A    between atoms: _34  and  _37
REMARK   17  A    between atoms: _37  and  _38
REMARK   18  A    between atoms: _41  and  _43
REMARK   19  A    between atoms: _43  and  _44
REMARK   20  A    between atoms: _43  and  _46
REMARK   21  A    between atoms: _46  and  _47
REMARK   22  A    between atoms: _49  and  _51
REMARK   23  A    between atoms: _51  and  _52
REMARK   24  A    between atoms: _51  and  _54
REMARK   25  A    between atoms: _54  and  _55
REMARK   26  A    between atoms: _60  and  _62
REMARK   27  A    between atoms: _62  and  _63
REMARK   28  A    between atoms: _62  and  _65
REMARK   29  A    between atoms: _65  and  _66
REMARK   30  A    between atoms: _68  and  _70
REMARK   31  A    between atoms: _70  and  _71
REMARK   32  A    between atoms: _70  and  _73
REMARK   33  A    between atoms: _73  and  _74
REMARK   34  A    between atoms: _76  and  _78
REMARK   35  A    between atoms: _78  and  _79
REMARK   36  A    between atoms: _78  and  _81
REMARK   37  A    between atoms: _81  and  _82
REMARK   38  A    between atoms: _85  and  _87
REMARK   39  A    between atoms: _87  and  _88
REMARK   40  A    between atoms: _91  and  _93
REMARK   41  A    between atoms: _93  and  _94
REMARK   42  A    between atoms: _93  and  _96
REMARK   43  A    between atoms: _96  and  _97
REMARK   44  A    between atoms: _100  and  _102
REMARK   45  A    between atoms: _102  and  _103
REMARK   46  A    between atoms: _102  and  _105
REMARK   47  A    between atoms: _105  and  _106
REMARK   48  A    between atoms: _106  and  _107
REMARK   49  A    between atoms: _107  and  _108
REMARK   50  A    between atoms: _108  and  _109
REMARK   51  A    between atoms: _113  and  _115
REMARK   52  A    between atoms: _115  and  _116
REMARK   53  A    between atoms: _115  and  _118
REMARK   54  A    between atoms: _118  and  _119
REMARK   55  A    between atoms: _122  and  _124
REMARK   56  A    between atoms: _124  and  _125
REMARK   57  A    between atoms: _124  and  _127
REMARK   58  A    between atoms: _127  and  _128
REMARK   59  A    between atoms: _131  and  _133
REMARK   60  A    between atoms: _133  and  _134
REMARK   61  A    between atoms: _133  and  _136
REMARK   62  A    between atoms: _136  and  _137
REMARK   63  A    between atoms: _140  and  _142
REMARK   64  A    between atoms: _142  and  _143
REMARK   65  A    between atoms: _142  and  _145
REMARK   66  A    between atoms: _148  and  _150
REMARK   67  A    between atoms: _150  and  _151
REMARK   68  A    between atoms: _150  and  _153
REMARK   69  A    between atoms: _153  and  _154
REMARK   70  A    between atoms: _157  and  _159
REMARK   71  A    between atoms: _159  and  _160
REMARK   72  A    between atoms: _159  and  _162
REMARK   73  A    between atoms: _162  and  _163
REMARK   74  A    between atoms: _166  and  _168
REMARK   75  A    between atoms: _168  and  _169
REMARK   76  A    between atoms: _171  and  _173
REMARK   77  A    between atoms: _173  and  _174
REMARK   78  A    between atoms: _173  and  _176
REMARK   79  A    between atoms: _176  and  _177
REMARK   80  A    between atoms: _180  and  _182
REMARK   81  A    between atoms: _182  and  _183
REMARK   82  A    between atoms: _185  and  _187
REMARK   83  A    between atoms: _187  and  _188
REMARK   84  A    between atoms: _187  and  _190
REMARK   85  A    between atoms: _190  and  _191
REMARK   86  A    between atoms: _191  and  _192
REMARK   87  A    between atoms: _194  and  _196
REMARK   88  A    between atoms: _196  and  _197
REMARK   89  A    between atoms: _196  and  _199
REMARK   90  A    between atoms: _199  and  _200
REMARK   91  A    between atoms: _203  and  _205
REMARK   92  A    between atoms: _205  and  _206
REMARK   93  A    between atoms: _205  and  _208
REMARK   94  A    between atoms: _208  and  _209
REMARK   95  A    between atoms: _212  and  _214
REMARK   96  A    between atoms: _214  and  _215
REMARK   97  A    between atoms: _214  and  _217
REMARK   98  A    between atoms: _217  and  _218
REMARK   99  A    between atoms: _221  and  _223
REMARK  100  A    between atoms: _223  and  _224
REMARK  101  A    between atoms: _223  and  _226
REMARK  102  A    between atoms: _226  and  _227
REMARK  103  A    between atoms: _230  and  _232
REMARK  104  A    between atoms: _232  and  _233
REMARK  105  A    between atoms: _232  and  _235
REMARK  106  A    between atoms: _235  and  _236
REMARK  107  A    between atoms: _241  and  _243
REMARK  108  A    between atoms: _243  and  _244
REMARK  109  A    between atoms: _243  and  _246
REMARK  110  A    between atoms: _246  and  _247
REMARK  111  A    between atoms: _250  and  _252
REMARK  112  A    between atoms: _252  and  _253
REMARK  113  A    between atoms: _255  and  _257
REMARK  114  A    between atoms: _257  and  _258
REMARK  115  A    between atoms: _257  and  _260
REMARK  116  A    between atoms: _260  and  _261
REMARK  117  A    between atoms: _264  and  _266
REMARK  118  A    between atoms: _266  and  _267
REMARK  119  A    between atoms: _270  and  _272
REMARK  120  A    between atoms: _272  and  _273
REMARK  121  A    between atoms: _275  and  _277
REMARK  122  A    between atoms: _277  and  _278
REMARK  123  A    between atoms: _277  and  _280
REMARK  124  A    between atoms: _283  and  _285
REMARK  125  A    between atoms: _285  and  _286
REMARK  126  A    between atoms: _288  and  _290
REMARK  127  A    between atoms: _290  and  _291
REMARK  128  A    between atoms: _290  and  _293
REMARK  129  A    between atoms: _293  and  _294
REMARK  130  A    between atoms: _300  and  _302
REMARK  131  A    between atoms: _302  and  _303
REMARK  132  A    between atoms: _302  and  _305
REMARK  133  A    between atoms: _305  and  _306
REMARK  134  A    between atoms: _311  and  _312
REMARK  135  A    between atoms: _314  and  _316
REMARK  136  A    between atoms: _316  and  _317
REMARK  137  A    between atoms: _316  and  _319
REMARK  138  A    between atoms: _319  and  _320
REMARK  139  A    between atoms: _325  and  _326
REMARK  140  A    between atoms: _328  and  _330
REMARK  141  A    between atoms: _330  and  _331
REMARK  142  A    between atoms: _330  and  _333
REMARK  143  A    between atoms: _336  and  _338
REMARK  144  A    between atoms: _338  and  _339
REMARK  145  A    between atoms: _338  and  _341
REMARK  146  A    between atoms: _341  and  _342
REMARK  147  A    between atoms: _345  and  _347
REMARK  148  A    between atoms: _347  and  _348
REMARK  149  A    between atoms: _347  and  _350
REMARK  150  A    between atoms: _353  and  _355
REMARK  151  A    between atoms: _355  and  _356
REMARK  152  A    between atoms: _355  and  _358
REMARK  153  A    between atoms: _358  and  _359
REMARK  154  A    between atoms: _362  and  _364
REMARK  155  A    between atoms: _364  and  _365
REMARK  156  A    between atoms: _364  and  _367
REMARK  157  A    between atoms: _367  and  _368
REMARK  158  A    between atoms: _371  and  _373
REMARK  159  A    between atoms: _373  and  _374
REMARK  160  A    between atoms: _373  and  _376
REMARK  161  A    between atoms: _376  and  _377
REMARK  162  A    between atoms: _377  and  _378
REMARK  163  A    between atoms: _378  and  _379
REMARK  164  A    between atoms: _379  and  _380
REMARK  165  A    between atoms: _384  and  _386
REMARK  166  A    between atoms: _386  and  _387
REMARK  167  A    between atoms: _386  and  _389
REMARK  168  A    between atoms: _389  and  _390
REMARK  169  A    between atoms: _395  and  _397
REMARK  170  A    between atoms: _397  and  _398
REMARK  171  A    between atoms: _397  and  _400
REMARK  172  A    between atoms: _400  and  _401
REMARK  173  A    between atoms: _411  and  _413
REMARK  174  A    between atoms: _413  and  _414
REMARK  175  A    between atoms: _413  and  _416
REMARK  176  A    between atoms: _416  and  _417
REMARK  177  A    between atoms: _417  and  _418
REMARK  178  A    between atoms: _421  and  _423
REMARK  179  A    between atoms: _423  and  _424
REMARK  180  A    between atoms: _423  and  _426
REMARK  181  A    between atoms: _426  and  _427
REMARK  182  A    between atoms: _429  and  _431
REMARK  183  A    between atoms: _431  and  _432
REMARK  184  A    between atoms: _431  and  _434
REMARK  185  A    between atoms: _434  and  _435
REMARK  186  A    between atoms: _441  and  _443
REMARK  187  A    between atoms: _443  and  _444
REMARK  188  A    between atoms: _443  and  _446
REMARK  189  A    between atoms: _446  and  _447
REMARK  190  A    between atoms: _450  and  _452
REMARK  191  A    between atoms: _452  and  _453
REMARK  192  A    between atoms: _452  and  _455
REMARK  193  A    between atoms: _458  and  _460
REMARK  194  A    between atoms: _460  and  _461
REMARK  195  A    between atoms: _463  and  _465
REMARK  196  A    between atoms: _465  and  _466
REMARK  197  A    between atoms: _465  and  _468
REMARK  198  A    between atoms: _468  and  _469
REMARK  199  A    between atoms: _472  and  _474
REMARK  200  A    between atoms: _474  and  _475
REMARK  201  A    between atoms: _474  and  _477
REMARK  202  A    between atoms: _477  and  _478
REMARK  203  A    between atoms: _478  and  _479
REMARK  204  A    between atoms: _479  and  _480
REMARK  205  A    between atoms: _480  and  _481
REMARK  206  A    between atoms: _485  and  _487
REMARK  207  A    between atoms: _487  and  _488
REMARK  208  A    between atoms: _487  and  _490
REMARK                            x       y       z     vdW  Elec       q    Type
REMARK                         _______ _______ _______ _____ _____    ______ ____
ROOT
ATOM      1  O   HOH     1      70.517  11.055  21.859  0.00  0.00    +0.000 OA
ENDROOT
TORSDOF 0
REMARK  Name = ../refined-set-2016/3b25/3b25_pocket.pdb
REMARK  208 active torsions:
REMARK  status: ('A' for Active; 'I' for Inactive)
REMARK    1  A    between atoms: _1  and  _3
REMARK    2  A    between atoms: _3  and  _4
REMARK    3  A    between atoms: _3  and  _6
REMARK    4  A    between atoms: _6  and  _7
REMARK    5  A    between atoms: _13  and  _15
REMARK    6  A    between atoms: _15  and  _16
REMARK    7  A    between atoms: _15  and  _18
REMARK    8  A    between atoms: _18  and  _19
REMARK    9  A    between atoms: _19  and  _20
REMARK   10  A    between atoms: _23  and  _25
REMARK   11  A    between atoms: _25  and  _26
REMARK   12  A    between atoms: _25  and  _28
REMARK   13  A    between atoms: _28  and  _29
REMARK   14  A    between atoms: _32  and  _34
REMARK   15  A    between atoms: _34  and  _35
REMARK   16  A    between atoms: _34  and  _37
REMARK   17  A    between atoms: _37  and  _38
REMARK   18  A    between atoms: _41  and  _43
REMARK   19  A    between atoms: _43  and  _44
REMARK   20  A    between atoms: _43  and  _46
REMARK   21  A    between atoms: _46  and  _47
REMARK   22  A    between atoms: _49  and  _51
REMARK   23  A    between atoms: _51  and  _52
REMARK   24  A    between atoms: _51  and  _54
REMARK   25  A    between atoms: _54  and  _55
REMARK   26  A    between atoms: _60  and  _62
REMARK   27  A    between atoms: _62  and  _63
REMARK   28  A    between atoms: _62  and  _65
REMARK   29  A    between atoms: _65  and  _66
REMARK   30  A    between atoms: _68  and  _70
REMARK   31  A    between atoms: _70  and  _71
REMARK   32  A    between atoms: _70  and  _73
REMARK   33  A    between atoms: _73  and  _74
REMARK   34  A    between atoms: _76  and  _78
REMARK   35  A    between atoms: _78  and  _79
REMARK   36  A    between atoms: _78  and  _81
REMARK   37  A    between atoms: _81  and  _82
REMARK   38  A    between atoms: _85  and  _87
REMARK   39  A    between atoms: _87  and  _88
REMARK   40  A    between atoms: _91  and  _93
REMARK   41  A    between atoms: _93  and  _94
REMARK   42  A    between atoms: _93  and  _96
REMARK   43  A    between atoms: _96  and  _97
REMARK   44  A    between atoms: _100  and  _102
REMARK   45  A    between atoms: _102  and  _103
REMARK   46  A    between atoms: _102  and  _105
REMARK   47  A    between atoms: _105  and  _106
REMARK   48  A    between atoms: _106  and  _107
REMARK   49  A    between atoms: _107  and  _108
REMARK   50  A    between atoms: _108  and  _109
REMARK   51  A    between atoms: _113  and  _115
REMARK   52  A    between atoms: _115  and  _116
REMARK   53  A    between atoms: _115  and  _118
REMARK   54  A    between atoms: _118  and  _119
REMARK   55  A    between atoms: _122  and  _124
REMARK   56  A    between atoms: _124  and  _125
REMARK   57  A    between atoms: _124  and  _127
REMARK   58  A    between atoms: _127  and  _128
REMARK   59  A    between atoms: _131  and  _133
REMARK   60  A    between atoms: _133  and  _134
REMARK   61  A    between atoms: _133  and  _136
REMARK   62  A    between atoms: _136  and  _137
REMARK   63  A    between atoms: _140  and  _142
REMARK   64  A    between atoms: _142  and  _143
REMARK   65  A    between atoms: _142  and  _145
REMARK   66  A    between atoms: _148  and  _150
REMARK   67  A    between atoms: _150  and  _151
REMARK   68  A    between atoms: _150  and  _153
REMARK   69  A    between atoms: _153  and  _154
REMARK   70  A    between atoms: _157  and  _159
REMARK   71  A    between atoms: _159  and  _160
REMARK   72  A    between atoms: _159  and  _162
REMARK   73  A    between atoms: _162  and  _163
REMARK   74  A    between atoms: _166  and  _168
REMARK   75  A    between atoms: _168  and  _169
REMARK   76  A    between atoms: _171  and  _173
REMARK   77  A    between atoms: _173  and  _174
REMARK   78  A    between atoms: _173  and  _176
REMARK   79  A    between atoms: _176  and  _177
REMARK   80  A    between atoms: _180  and  _182
REMARK   81  A    between atoms: _182  and  _183
REMARK   82  A    between atoms: _185  and  _187
REMARK   83  A    between atoms: _187  and  _188
REMARK   84  A    between atoms: _187  and  _190
REMARK   85  A    between atoms: _190  and  _191
REMARK   86  A    between atoms: _191  and  _192
REMARK   87  A    between atoms: _194  and  _196
REMARK   88  A    between atoms: _196  and  _197
REMARK   89  A    between atoms: _196  and  _199
REMARK   90  A    between atoms: _199  and  _200
REMARK   91  A    between atoms: _203  and  _205
REMARK   92  A    between atoms: _205  and  _206
REMARK   93  A    between atoms: _205  and  _208
REMARK   94  A    between atoms: _208  and  _209
REMARK   95  A    between atoms: _212  and  _214
REMARK   96  A    between atoms: _214  and  _215
REMARK   97  A    between atoms: _214  and  _217
REMARK   98  A    between atoms: _217  and  _218
REMARK   99  A    between atoms: _221  and  _223
REMARK  100  A    between atoms: _223  and  _224
REMARK  101  A    between atoms: _223  and  _226
REMARK  102  A    between atoms: _226  and  _227
REMARK  103  A    between atoms: _230  and  _232
REMARK  104  A    between atoms: _232  and  _233
REMARK  105  A    between atoms: _232  and  _235
REMARK  106  A    between atoms: _235  and  _236
REMARK  107  A    between atoms: _241  and  _243
REMARK  108  A    between atoms: _243  and  _244
REMARK  109  A    between atoms: _243  and  _246
REMARK  110  A    between atoms: _246  and  _247
REMARK  111  A    between atoms: _250  and  _252
REMARK  112  A    between atoms: _252  and  _253
REMARK  113  A    between atoms: _255  and  _257
REMARK  114  A    between atoms: _257  and  _258
REMARK  115  A    between atoms: _257  and  _260
REMARK  116  A    between atoms: _260  and  _261
REMARK  117  A    between atoms: _264  and  _266
REMARK  118  A    between atoms: _266  and  _267
REMARK  119  A    between atoms: _270  and  _272
REMARK  120  A    between atoms: _272  and  _273
REMARK  121  A    between atoms: _275  and  _277
REMARK  122  A    between atoms: _277  and  _278
REMARK  123  A    between atoms: _277  and  _280
REMARK  124  A    between atoms: _283  and  _285
REMARK  125  A    between atoms: _285  and  _286
REMARK  126  A    between atoms: _288  and  _290
REMARK  127  A    between atoms: _290  and  _291
REMARK  128  A    between atoms: _290  and  _293
REMARK  129  A    between atoms: _293  and  _294
REMARK  130  A    between atoms: _300  and  _302
REMARK  131  A    between atoms: _302  and  _303
REMARK  132  A    between atoms: _302  and  _305
REMARK  133  A    between atoms: _305  and  _306
REMARK  134  A    between atoms: _311  and  _312
REMARK  135  A    between atoms: _314  and  _316
REMARK  136  A    between atoms: _316  and  _317
REMARK  137  A    between atoms: _316  and  _319
REMARK  138  A    between atoms: _319  and  _320
REMARK  139  A    between atoms: _325  and  _326
REMARK  140  A    between atoms: _328  and  _330
REMARK  141  A    between atoms: _330  and  _331
REMARK  142  A    between atoms: _330  and  _333
REMARK  143  A    between atoms: _336  and  _338
REMARK  144  A    between atoms: _338  and  _339
REMARK  145  A    between atoms: _338  and  _341
REMARK  146  A    between atoms: _341  and  _342
REMARK  147  A    between atoms: _345  and  _347
REMARK  148  A    between atoms: _347  and  _348
REMARK  149  A    between atoms: _347  and  _350
REMARK  150  A    between atoms: _353  and  _355
REMARK  151  A    between atoms: _355  and  _356
REMARK  152  A    between atoms: _355  and  _358
REMARK  153  A    between atoms: _358  and  _359
REMARK  154  A    between atoms: _362  and  _364
REMARK  155  A    between atoms: _364  and  _365
REMARK  156  A    between atoms: _364  and  _367
REMARK  157  A    between atoms: _367  and  _368
REMARK  158  A    between atoms: _371  and  _373
REMARK  159  A    between atoms: _373  and  _374
REMARK  160  A    between atoms: _373  and  _376
REMARK  161  A    between atoms: _376  and  _377
REMARK  162  A    between atoms: _377  and  _378
REMARK  163  A    between atoms: _378  and  _379
REMARK  164  A    between atoms: _379  and  _380
REMARK  165  A    between atoms: _384  and  _386
REMARK  166  A    between atoms: _386  and  _387
REMARK  167  A    between atoms: _386  and  _389
REMARK  168  A    between atoms: _389  and  _390
REMARK  169  A    between atoms: _395  and  _397
REMARK  170  A    between atoms: _397  and  _398
REMARK  171  A    between atoms: _397  and  _400
REMARK  172  A    between atoms: _400  and  _401
REMARK  173  A    between atoms: _411  and  _413
REMARK  174  A    between atoms: _413  and  _414
REMARK  175  A    between atoms: _413  and  _416
REMARK  176  A    between atoms: _416  and  _417
REMARK  177  A    between atoms: _417  and  _418
REMARK  178  A    between atoms: _421  and  _423
REMARK  179  A    between atoms: _423  and  _424
REMARK  180  A    between atoms: _423  and  _426
REMARK  181  A    between atoms: _426  and  _427
REMARK  182  A    between atoms: _429  and  _431
REMARK  183  A    between atoms: _431  and  _432
REMARK  184  A    between atoms: _431  and  _434
REMARK  185  A    between atoms: _434  and  _435
REMARK  186  A    between atoms: _441  and  _443
REMARK  187  A    between atoms: _443  and  _444
REMARK  188  A    between atoms: _443  and  _446
REMARK  189  A    between atoms: _446  and  _447
REMARK  190  A    between atoms: _450  and  _452
REMARK  191  A    between atoms: _452  and  _453
REMARK  192  A    between atoms: _452  and  _455
REMARK  193  A    between atoms: _458  and  _460
REMARK  194  A    between atoms: _460  and  _461
REMARK  195  A    between atoms: _463  and  _465
REMARK  196  A    between atoms: _465  and  _466
REMARK  197  A    between atoms: _465  and  _468
REMARK  198  A    between atoms: _468  and  _469
REMARK  199  A    between atoms: _472  and  _474
REMARK  200  A    between atoms: _474  and  _475
REMARK  201  A    between atoms: _474  and  _477
REMARK  202  A    between atoms: _477  and  _478
REMARK  203  A    between atoms: _478  and  _479
REMARK  204  A    between atoms: _479  and  _480
REMARK  205  A    between atoms: _480  and  _481
REMARK  206  A    between atoms: _485  and  _487
REMARK  207  A    between atoms: _487  and  _488
REMARK  208  A    between atoms: _487  and  _490
REMARK                            x       y       z     vdW  Elec       q    Type
REMARK                         _______ _______ _______ _____ _____    ______ ____
ROOT
ATOM      1  O   HOH     1      66.256  12.678  27.797  0.00  0.00    +0.000 OA
ENDROOT
TORSDOF 0
REMARK  Name = ../refined-set-2016/3b25/3b25_pocket.pdb
REMARK  208 active torsions:
REMARK  status: ('A' for Active; 'I' for Inactive)
REMARK    1  A    between atoms: _1  and  _3
REMARK    2  A    between atoms: _3  and  _4
REMARK    3  A    between atoms: _3  and  _6
REMARK    4  A    between atoms: _6  and  _7
REMARK    5  A    between atoms: _13  and  _15
REMARK    6  A    between atoms: _15  and  _16
REMARK    7  A    between atoms: _15  and  _18
REMARK    8  A    between atoms: _18  and  _19
REMARK    9  A    between atoms: _19  and  _20
REMARK   10  A    between atoms: _23  and  _25
REMARK   11  A    between atoms: _25  and  _26
REMARK   12  A    between atoms: _25  and  _28
REMARK   13  A    between atoms: _28  and  _29
REMARK   14  A    between atoms: _32  and  _34
REMARK   15  A    between atoms: _34  and  _35
REMARK   16  A    between atoms: _34  and  _37
REMARK   17  A    between atoms: _37  and  _38
REMARK   18  A    between atoms: _41  and  _43
REMARK   19  A    between atoms: _43  and  _44
REMARK   20  A    between atoms: _43  and  _46
REMARK   21  A    between atoms: _46  and  _47
REMARK   22  A    between atoms: _49  and  _51
REMARK   23  A    between atoms: _51  and  _52
REMARK   24  A    between atoms: _51  and  _54
REMARK   25  A    between atoms: _54  and  _55
REMARK   26  A    between atoms: _60  and  _62
REMARK   27  A    between atoms: _62  and  _63
REMARK   28  A    between atoms: _62  and  _65
REMARK   29  A    between atoms: _65  and  _66
REMARK   30  A    between atoms: _68  and  _70
REMARK   31  A    between atoms: _70  and  _71
REMARK   32  A    between atoms: _70  and  _73
REMARK   33  A    between atoms: _73  and  _74
REMARK   34  A    between atoms: _76  and  _78
REMARK   35  A    between atoms: _78  and  _79
REMARK   36  A    between atoms: _78  and  _81
REMARK   37  A    between atoms: _81  and  _82
REMARK   38  A    between atoms: _85  and  _87
REMARK   39  A    between atoms: _87  and  _88
REMARK   40  A    between atoms: _91  and  _93
REMARK   41  A    between atoms: _93  and  _94
REMARK   42  A    between atoms: _93  and  _96
REMARK   43  A    between atoms: _96  and  _97
REMARK   44  A    between atoms: _100  and  _102
REMARK   45  A    between atoms: _102  and  _103
REMARK   46  A    between atoms: _102  and  _105
REMARK   47  A    between atoms: _105  and  _106
REMARK   48  A    between atoms: _106  and  _107
REMARK   49  A    between atoms: _107  and  _108
REMARK   50  A    between atoms: _108  and  _109
REMARK   51  A    between atoms: _113  and  _115
REMARK   52  A    between atoms: _115  and  _116
REMARK   53  A    between atoms: _115  and  _118
REMARK   54  A    between atoms: _118  and  _119
REMARK   55  A    between atoms: _122  and  _124
REMARK   56  A    between atoms: _124  and  _125
REMARK   57  A    between atoms: _124  and  _127
REMARK   58  A    between atoms: _127  and  _128
REMARK   59  A    between atoms: _131  and  _133
REMARK   60  A    between atoms: _133  and  _134
REMARK   61  A    between atoms: _133  and  _136
REMARK   62  A    between atoms: _136  and  _137
REMARK   63  A    between atoms: _140  and  _142
REMARK   64  A    between atoms: _142  and  _143
REMARK   65  A    between atoms: _142  and  _145
REMARK   66  A    between atoms: _148  and  _150
REMARK   67  A    between atoms: _150  and  _151
REMARK   68  A    between atoms: _150  and  _153
REMARK   69  A    between atoms: _153  and  _154
REMARK   70  A    between atoms: _157  and  _159
REMARK   71  A    between atoms: _159  and  _160
REMARK   72  A    between atoms: _159  and  _162
REMARK   73  A    between atoms: _162  and  _163
REMARK   74  A    between atoms: _166  and  _168
REMARK   75  A    between atoms: _168  and  _169
REMARK   76  A    between atoms: _171  and  _173
REMARK   77  A    between atoms: _173  and  _174
REMARK   78  A    between atoms: _173  and  _176
REMARK   79  A    between atoms: _176  and  _177
REMARK   80  A    between atoms: _180  and  _182
REMARK   81  A    between atoms: _182  and  _183
REMARK   82  A    between atoms: _185  and  _187
REMARK   83  A    between atoms: _187  and  _188
REMARK   84  A    between atoms: _187  and  _190
REMARK   85  A    between atoms: _190  and  _191
REMARK   86  A    between atoms: _191  and  _192
REMARK   87  A    between atoms: _194  and  _196
REMARK   88  A    between atoms: _196  and  _197
REMARK   89  A    between atoms: _196  and  _199
REMARK   90  A    between atoms: _199  and  _200
REMARK   91  A    between atoms: _203  and  _205
REMARK   92  A    between atoms: _205  and  _206
REMARK   93  A    between atoms: _205  and  _208
REMARK   94  A    between atoms: _208  and  _209
REMARK   95  A    between atoms: _212  and  _214
REMARK   96  A    between atoms: _214  and  _215
REMARK   97  A    between atoms: _214  and  _217
REMARK   98  A    between atoms: _217  and  _218
REMARK   99  A    between atoms: _221  and  _223
REMARK  100  A    between atoms: _223  and  _224
REMARK  101  A    between atoms: _223  and  _226
REMARK  102  A    between atoms: _226  and  _227
REMARK  103  A    between atoms: _230  and  _232
REMARK  104  A    between atoms: _232  and  _233
REMARK  105  A    between atoms: _232  and  _235
REMARK  106  A    between atoms: _235  and  _236
REMARK  107  A    between atoms: _241  and  _243
REMARK  108  A    between atoms: _243  and  _244
REMARK  109  A    between atoms: _243  and  _246
REMARK  110  A    between atoms: _246  and  _247
REMARK  111  A    between atoms: _250  and  _252
REMARK  112  A    between atoms: _252  and  _253
REMARK  113  A    between atoms: _255  and  _257
REMARK  114  A    between atoms: _257  and  _258
REMARK  115  A    between atoms: _257  and  _260
REMARK  116  A    between atoms: _260  and  _261
REMARK  117  A    between atoms: _264  and  _266
REMARK  118  A    between atoms: _266  and  _267
REMARK  119  A    between atoms: _270  and  _272
REMARK  120  A    between atoms: _272  and  _273
REMARK  121  A    between atoms: _275  and  _277
REMARK  122  A    between atoms: _277  and  _278
REMARK  123  A    between atoms: _277  and  _280
REMARK  124  A    between atoms: _283  and  _285
REMARK  125  A    between atoms: _285  and  _286
REMARK  126  A    between atoms: _288  and  _290
REMARK  127  A    between atoms: _290  and  _291
REMARK  128  A    between atoms: _290  and  _293
REMARK  129  A    between atoms: _293  and  _294
REMARK  130  A    between atoms: _300  and  _302
REMARK  131  A    between atoms: _302  and  _303
REMARK  132  A    between atoms: _302  and  _305
REMARK  133  A    between atoms: _305  and  _306
REMARK  134  A    between atoms: _311  and  _312
REMARK  135  A    between atoms: _314  and  _316
REMARK  136  A    between atoms: _316  and  _317
REMARK  137  A    between atoms: _316  and  _319
REMARK  138  A    between atoms: _319  and  _320
REMARK  139  A    between atoms: _325  and  _326
REMARK  140  A    between atoms: _328  and  _330
REMARK  141  A    between atoms: _330  and  _331
REMARK  142  A    between atoms: _330  and  _333
REMARK  143  A    between atoms: _336  and  _338
REMARK  144  A    between atoms: _338  and  _339
REMARK  145  A    between atoms: _338  and  _341
REMARK  146  A    between atoms: _341  and  _342
REMARK  147  A    between atoms: _345  and  _347
REMARK  148  A    between atoms: _347  and  _348
REMARK  149  A    between atoms: _347  and  _350
REMARK  150  A    between atoms: _353  and  _355
REMARK  151  A    between atoms: _355  and  _356
REMARK  152  A    between atoms: _355  and  _358
REMARK  153  A    between atoms: _358  and  _359
REMARK  154  A    between atoms: _362  and  _364
REMARK  155  A    between atoms: _364  and  _365
REMARK  156  A    between atoms: _364  and  _367
REMARK  157  A    between atoms: _367  and  _368
REMARK  158  A    between atoms: _371  and  _373
REMARK  159  A    between atoms: _373  and  _374
REMARK  160  A    between atoms: _373  and  _376
REMARK  161  A    between atoms: _376  and  _377
REMARK  162  A    between atoms: _377  and  _378
REMARK  163  A    between atoms: _378  and  _379
REMARK  164  A    between atoms: _379  and  _380
REMARK  165  A    between atoms: _384  and  _386
REMARK  166  A    between atoms: _386  and  _387
REMARK  167  A    between atoms: _386  and  _389
REMARK  168  A    between atoms: _389  and  _390
REMARK  169  A    between atoms: _395  and  _397
REMARK  170  A    between atoms: _397  and  _398
REMARK  171  A    between atoms: _397  and  _400
REMARK  172  A    between atoms: _400  and  _401
REMARK  173  A    between atoms: _411  and  _413
REMARK  174  A    between atoms: _413  and  _414
REMARK  175  A    between atoms: _413  and  _416
REMARK  176  A    between atoms: _416  and  _417
REMARK  177  A    between atoms: _417  and  _418
REMARK  178  A    between atoms: _421  and  _423
REMARK  179  A    between atoms: _423  and  _424
REMARK  180  A    between atoms: _423  and  _426
REMARK  181  A    between atoms: _426  and  _427
REMARK  182  A    between atoms: _429  and  _431
REMARK  183  A    between atoms: _431  and  _432
REMARK  184  A    between atoms: _431  and  _434
REMARK  185  A    between atoms: _434  and  _435
REMARK  186  A    between atoms: _441  and  _443
REMARK  187  A    between atoms: _443  and  _444
REMARK  188  A    between atoms: _443  and  _446
REMARK  189  A    between atoms: _446  and  _447
REMARK  190  A    between atoms: _450  and  _452
REMARK  191  A    between atoms: _452  and  _453
REMARK  192  A    between atoms: _452  and  _455
REMARK  193  A    between atoms: _458  and  _460
REMARK  194  A    between atoms: _460  and  _461
REMARK  195  A    between atoms: _463  and  _465
REMARK  196  A    between atoms: _465  and  _466
REMARK  197  A    between atoms: _465  and  _468
REMARK  198  A    between atoms: _468  and  _469
REMARK  199  A    between atoms: _472  and  _474
REMARK  200  A    between atoms: _474  and  _475
REMARK  201  A    between atoms: _474  and  _477
REMARK  202  A    between atoms: _477  and  _478
REMARK  203  A    between atoms: _478  and  _479
REMARK  204  A    between atoms: _479  and  _480
REMARK  205  A    between atoms: _480  and  _481
REMARK  206  A    between atoms: _485  and  _487
REMARK  207  A    between atoms: _487  and  _488
REMARK  208  A    between atoms: _487  and  _490
REMARK                            x       y       z     vdW  Elec       q    Type
REMARK                         _______ _______ _______ _____ _____    ______ ____
ROOT
ATOM      1  O   HOH     1      65.959   5.653  17.096  0.00  0.00    +0.000 OA
ENDROOT
TORSDOF 0
REMARK  Name = ../refined-set-2016/3b25/3b25_pocket.pdb
REMARK  208 active torsions:
REMARK  status: ('A' for Active; 'I' for Inactive)
REMARK    1  A    between atoms: _1  and  _3
REMARK    2  A    between atoms: _3  and  _4
REMARK    3  A    between atoms: _3  and  _6
REMARK    4  A    between atoms: _6  and  _7
REMARK    5  A    between atoms: _13  and  _15
REMARK    6  A    between atoms: _15  and  _16
REMARK    7  A    between atoms: _15  and  _18
REMARK    8  A    between atoms: _18  and  _19
REMARK    9  A    between atoms: _19  and  _20
REMARK   10  A    between atoms: _23  and  _25
REMARK   11  A    between atoms: _25  and  _26
REMARK   12  A    between atoms: _25  and  _28
REMARK   13  A    between atoms: _28  and  _29
REMARK   14  A    between atoms: _32  and  _34
REMARK   15  A    between atoms: _34  and  _35
REMARK   16  A    between atoms: _34  and  _37
REMARK   17  A    between atoms: _37  and  _38
REMARK   18  A    between atoms: _41  and  _43
REMARK   19  A    between atoms: _43  and  _44
REMARK   20  A    between atoms: _43  and  _46
REMARK   21  A    between atoms: _46  and  _47
REMARK   22  A    between atoms: _49  and  _51
REMARK   23  A    between atoms: _51  and  _52
REMARK   24  A    between atoms: _51  and  _54
REMARK   25  A    between atoms: _54  and  _55
REMARK   26  A    between atoms: _60  and  _62
REMARK   27  A    between atoms: _62  and  _63
REMARK   28  A    between atoms: _62  and  _65
REMARK   29  A    between atoms: _65  and  _66
REMARK   30  A    between atoms: _68  and  _70
REMARK   31  A    between atoms: _70  and  _71
REMARK   32  A    between atoms: _70  and  _73
REMARK   33  A    between atoms: _73  and  _74
REMARK   34  A    between atoms: _76  and  _78
REMARK   35  A    between atoms: _78  and  _79
REMARK   36  A    between atoms: _78  and  _81
REMARK   37  A    between atoms: _81  and  _82
REMARK   38  A    between atoms: _85  and  _87
REMARK   39  A    between atoms: _87  and  _88
REMARK   40  A    between atoms: _91  and  _93
REMARK   41  A    between atoms: _93  and  _94
REMARK   42  A    between atoms: _93  and  _96
REMARK   43  A    between atoms: _96  and  _97
REMARK   44  A    between atoms: _100  and  _102
REMARK   45  A    between atoms: _102  and  _103
REMARK   46  A    between atoms: _102  and  _105
REMARK   47  A    between atoms: _105  and  _106
REMARK   48  A    between atoms: _106  and  _107
REMARK   49  A    between atoms: _107  and  _108
REMARK   50  A    between atoms: _108  and  _109
REMARK   51  A    between atoms: _113  and  _115
REMARK   52  A    between atoms: _115  and  _116
REMARK   53  A    between atoms: _115  and  _118
REMARK   54  A    between atoms: _118  and  _119
REMARK   55  A    between atoms: _122  and  _124
REMARK   56  A    between atoms: _124  and  _125
REMARK   57  A    between atoms: _124  and  _127
REMARK   58  A    between atoms: _127  and  _128
REMARK   59  A    between atoms: _131  and  _133
REMARK   60  A    between atoms: _133  and  _134
REMARK   61  A    between atoms: _133  and  _136
REMARK   62  A    between atoms: _136  and  _137
REMARK   63  A    between atoms: _140  and  _142
REMARK   64  A    between atoms: _142  and  _143
REMARK   65  A    between atoms: _142  and  _145
REMARK   66  A    between atoms: _148  and  _150
REMARK   67  A    between atoms: _150  and  _151
REMARK   68  A    between atoms: _150  and  _153
REMARK   69  A    between atoms: _153  and  _154
REMARK   70  A    between atoms: _157  and  _159
REMARK   71  A    between atoms: _159  and  _160
REMARK   72  A    between atoms: _159  and  _162
REMARK   73  A    between atoms: _162  and  _163
REMARK   74  A    between atoms: _166  and  _168
REMARK   75  A    between atoms: _168  and  _169
REMARK   76  A    between atoms: _171  and  _173
REMARK   77  A    between atoms: _173  and  _174
REMARK   78  A    between atoms: _173  and  _176
REMARK   79  A    between atoms: _176  and  _177
REMARK   80  A    between atoms: _180  and  _182
REMARK   81  A    between atoms: _182  and  _183
REMARK   82  A    between atoms: _185  and  _187
REMARK   83  A    between atoms: _187  and  _188
REMARK   84  A    between atoms: _187  and  _190
REMARK   85  A    between atoms: _190  and  _191
REMARK   86  A    between atoms: _191  and  _192
REMARK   87  A    between atoms: _194  and  _196
REMARK   88  A    between atoms: _196  and  _197
REMARK   89  A    between atoms: _196  and  _199
REMARK   90  A    between atoms: _199  and  _200
REMARK   91  A    between atoms: _203  and  _205
REMARK   92  A    between atoms: _205  and  _206
REMARK   93  A    between atoms: _205  and  _208
REMARK   94  A    between atoms: _208  and  _209
REMARK   95  A    between atoms: _212  and  _214
REMARK   96  A    between atoms: _214  and  _215
REMARK   97  A    between atoms: _214  and  _217
REMARK   98  A    between atoms: _217  and  _218
REMARK   99  A    between atoms: _221  and  _223
REMARK  100  A    between atoms: _223  and  _224
REMARK  101  A    between atoms: _223  and  _226
REMARK  102  A    between atoms: _226  and  _227
REMARK  103  A    between atoms: _230  and  _232
REMARK  104  A    between atoms: _232  and  _233
REMARK  105  A    between atoms: _232  and  _235
REMARK  106  A    between atoms: _235  and  _236
REMARK  107  A    between atoms: _241  and  _243
REMARK  108  A    between atoms: _243  and  _244
REMARK  109  A    between atoms: _243  and  _246
REMARK  110  A    between atoms: _246  and  _247
REMARK  111  A    between atoms: _250  and  _252
REMARK  112  A    between atoms: _252  and  _253
REMARK  113  A    between atoms: _255  and  _257
REMARK  114  A    between atoms: _257  and  _258
REMARK  115  A    between atoms: _257  and  _260
REMARK  116  A    between atoms: _260  and  _261
REMARK  117  A    between atoms: _264  and  _266
REMARK  118  A    between atoms: _266  and  _267
REMARK  119  A    between atoms: _270  and  _272
REMARK  120  A    between atoms: _272  and  _273
REMARK  121  A    between atoms: _275  and  _277
REMARK  122  A    between atoms: _277  and  _278
REMARK  123  A    between atoms: _277  and  _280
REMARK  124  A    between atoms: _283  and  _285
REMARK  125  A    between atoms: _285  and  _286
REMARK  126  A    between atoms: _288  and  _290
REMARK  127  A    between atoms: _290  and  _291
REMARK  128  A    between atoms: _290  and  _293
REMARK  129  A    between atoms: _293  and  _294
REMARK  130  A    between atoms: _300  and  _302
REMARK  131  A    between atoms: _302  and  _303
REMARK  132  A    between atoms: _302  and  _305
REMARK  133  A    between atoms: _305  and  _306
REMARK  134  A    between atoms: _311  and  _312
REMARK  135  A    between atoms: _314  and  _316
REMARK  136  A    between atoms: _316  and  _317
REMARK  137  A    between atoms: _316  and  _319
REMARK  138  A    between atoms: _319  and  _320
REMARK  139  A    between atoms: _325  and  _326
REMARK  140  A    between atoms: _328  and  _330
REMARK  141  A    between atoms: _330  and  _331
REMARK  142  A    between atoms: _330  and  _333
REMARK  143  A    between atoms: _336  and  _338
REMARK  144  A    between atoms: _338  and  _339
REMARK  145  A    between atoms: _338  and  _341
REMARK  146  A    between atoms: _341  and  _342
REMARK  147  A    between atoms: _345  and  _347
REMARK  148  A    between atoms: _347  and  _348
REMARK  149  A    between atoms: _347  and  _350
REMARK  150  A    between atoms: _353  and  _355
REMARK  151  A    between atoms: _355  and  _356
REMARK  152  A    between atoms: _355  and  _358
REMARK  153  A    between atoms: _358  and  _359
REMARK  154  A    between atoms: _362  and  _364
REMARK  155  A    between atoms: _364  and  _365
REMARK  156  A    between atoms: _364  and  _367
REMARK  157  A    between atoms: _367  and  _368
REMARK  158  A    between atoms: _371  and  _373
REMARK  159  A    between atoms: _373  and  _374
REMARK  160  A    between atoms: _373  and  _376
REMARK  161  A    between atoms: _376  and  _377
REMARK  162  A    between atoms: _377  and  _378
REMARK  163  A    between atoms: _378  and  _379
REMARK  164  A    between atoms: _379  and  _380
REMARK  165  A    between atoms: _384  and  _386
REMARK  166  A    between atoms: _386  and  _387
REMARK  167  A    between atoms: _386  and  _389
REMARK  168  A    between atoms: _389  and  _390
REMARK  169  A    between atoms: _395  and  _397
REMARK  170  A    between atoms: _397  and  _398
REMARK  171  A    between atoms: _397  and  _400
REMARK  172  A    between atoms: _400  and  _401
REMARK  173  A    between atoms: _411  and  _413
REMARK  174  A    between atoms: _413  and  _414
REMARK  175  A    between atoms: _413  and  _416
REMARK  176  A    between atoms: _416  and  _417
REMARK  177  A    between atoms: _417  and  _418
REMARK  178  A    between atoms: _421  and  _423
REMARK  179  A    between atoms: _423  and  _424
REMARK  180  A    between atoms: _423  and  _426
REMARK  181  A    between atoms: _426  and  _427
REMARK  182  A    between atoms: _429  and  _431
REMARK  183  A    between atoms: _431  and  _432
REMARK  184  A    between atoms: _431  and  _434
REMARK  185  A    between atoms: _434  and  _435
REMARK  186  A    between atoms: _441  and  _443
REMARK  187  A    between atoms: _443  and  _444
REMARK  188  A    between atoms: _443  and  _446
REMARK  189  A    between atoms: _446  and  _447
REMARK  190  A    between atoms: _450  and  _452
REMARK  191  A    between atoms: _452  and  _453
REMARK  192  A    between atoms: _452  and  _455
REMARK  193  A    between atoms: _458  and  _460
REMARK  194  A    between atoms: _460  and  _461
REMARK  195  A    between atoms: _463  and  _465
REMARK  196  A    between atoms: _465  and  _466
REMARK  197  A    between atoms: _465  and  _468
REMARK  198  A    between atoms: _468  and  _469
REMARK  199  A    between atoms: _472  and  _474
REMARK  200  A    between atoms: _474  and  _475
REMARK  201  A    between atoms: _474  and  _477
REMARK  202  A    between atoms: _477  and  _478
REMARK  203  A    between atoms: _478  and  _479
REMARK  204  A    between atoms: _479  and  _480
REMARK  205  A    between atoms: _480  and  _481
REMARK  206  A    between atoms: _485  and  _487
REMARK  207  A    between atoms: _487  and  _488
REMARK  208  A    between atoms: _487  and  _490
REMARK                            x       y       z     vdW  Elec       q    Type
REMARK                         _______ _______ _______ _____ _____    ______ ____
ROOT
ATOM      1  O   HOH     1      66.277   3.705  23.097  0.00  0.00    +0.000 OA
ENDROOT
TORSDOF 0
REMARK  Name = ../refined-set-2016/3b25/3b25_pocket.pdb
REMARK  208 active torsions:
REMARK  status: ('A' for Active; 'I' for Inactive)
REMARK    1  A    between atoms: _1  and  _3
REMARK    2  A    between atoms: _3  and  _4
REMARK    3  A    between atoms: _3  and  _6
REMARK    4  A    between atoms: _6  and  _7
REMARK    5  A    between atoms: _13  and  _15
REMARK    6  A    between atoms: _15  and  _16
REMARK    7  A    between atoms: _15  and  _18
REMARK    8  A    between atoms: _18  and  _19
REMARK    9  A    between atoms: _19  and  _20
REMARK   10  A    between atoms: _23  and  _25
REMARK   11  A    between atoms: _25  and  _26
REMARK   12  A    between atoms: _25  and  _28
REMARK   13  A    between atoms: _28  and  _29
REMARK   14  A    between atoms: _32  and  _34
REMARK   15  A    between atoms: _34  and  _35
REMARK   16  A    between atoms: _34  and  _37
REMARK   17  A    between atoms: _37  and  _38
REMARK   18  A    between atoms: _41  and  _43
REMARK   19  A    between atoms: _43  and  _44
REMARK   20  A    between atoms: _43  and  _46
REMARK   21  A    between atoms: _46  and  _47
REMARK   22  A    between atoms: _49  and  _51
REMARK   23  A    between atoms: _51  and  _52
REMARK   24  A    between atoms: _51  and  _54
REMARK   25  A    between atoms: _54  and  _55
REMARK   26  A    between atoms: _60  and  _62
REMARK   27  A    between atoms: _62  and  _63
REMARK   28  A    between atoms: _62  and  _65
REMARK   29  A    between atoms: _65  and  _66
REMARK   30  A    between atoms: _68  and  _70
REMARK   31  A    between atoms: _70  and  _71
REMARK   32  A    between atoms: _70  and  _73
REMARK   33  A    between atoms: _73  and  _74
REMARK   34  A    between atoms: _76  and  _78
REMARK   35  A    between atoms: _78  and  _79
REMARK   36  A    between atoms: _78  and  _81
REMARK   37  A    between atoms: _81  and  _82
REMARK   38  A    between atoms: _85  and  _87
REMARK   39  A    between atoms: _87  and  _88
REMARK   40  A    between atoms: _91  and  _93
REMARK   41  A    between atoms: _93  and  _94
REMARK   42  A    between atoms: _93  and  _96
REMARK   43  A    between atoms: _96  and  _97
REMARK   44  A    between atoms: _100  and  _102
REMARK   45  A    between atoms: _102  and  _103
REMARK   46  A    between atoms: _102  and  _105
REMARK   47  A    between atoms: _105  and  _106
REMARK   48  A    between atoms: _106  and  _107
REMARK   49  A    between atoms: _107  and  _108
REMARK   50  A    between atoms: _108  and  _109
REMARK   51  A    between atoms: _113  and  _115
REMARK   52  A    between atoms: _115  and  _116
REMARK   53  A    between atoms: _115  and  _118
REMARK   54  A    between atoms: _118  and  _119
REMARK   55  A    between atoms: _122  and  _124
REMARK   56  A    between atoms: _124  and  _125
REMARK   57  A    between atoms: _124  and  _127
REMARK   58  A    between atoms: _127  and  _128
REMARK   59  A    between atoms: _131  and  _133
REMARK   60  A    between atoms: _133  and  _134
REMARK   61  A    between atoms: _133  and  _136
REMARK   62  A    between atoms: _136  and  _137
REMARK   63  A    between atoms: _140  and  _142
REMARK   64  A    between atoms: _142  and  _143
REMARK   65  A    between atoms: _142  and  _145
REMARK   66  A    between atoms: _148  and  _150
REMARK   67  A    between atoms: _150  and  _151
REMARK   68  A    between atoms: _150  and  _153
REMARK   69  A    between atoms: _153  and  _154
REMARK   70  A    between atoms: _157  and  _159
REMARK   71  A    between atoms: _159  and  _160
REMARK   72  A    between atoms: _159  and  _162
REMARK   73  A    between atoms: _162  and  _163
REMARK   74  A    between atoms: _166  and  _168
REMARK   75  A    between atoms: _168  and  _169
REMARK   76  A    between atoms: _171  and  _173
REMARK   77  A    between atoms: _173  and  _174
REMARK   78  A    between atoms: _173  and  _176
REMARK   79  A    between atoms: _176  and  _177
REMARK   80  A    between atoms: _180  and  _182
REMARK   81  A    between atoms: _182  and  _183
REMARK   82  A    between atoms: _185  and  _187
REMARK   83  A    between atoms: _187  and  _188
REMARK   84  A    between atoms: _187  and  _190
REMARK   85  A    between atoms: _190  and  _191
REMARK   86  A    between atoms: _191  and  _192
REMARK   87  A    between atoms: _194  and  _196
REMARK   88  A    between atoms: _196  and  _197
REMARK   89  A    between atoms: _196  and  _199
REMARK   90  A    between atoms: _199  and  _200
REMARK   91  A    between atoms: _203  and  _205
REMARK   92  A    between atoms: _205  and  _206
REMARK   93  A    between atoms: _205  and  _208
REMARK   94  A    between atoms: _208  and  _209
REMARK   95  A    between atoms: _212  and  _214
REMARK   96  A    between atoms: _214  and  _215
REMARK   97  A    between atoms: _214  and  _217
REMARK   98  A    between atoms: _217  and  _218
REMARK   99  A    between atoms: _221  and  _223
REMARK  100  A    between atoms: _223  and  _224
REMARK  101  A    between atoms: _223  and  _226
REMARK  102  A    between atoms: _226  and  _227
REMARK  103  A    between atoms: _230  and  _232
REMARK  104  A    between atoms: _232  and  _233
REMARK  105  A    between atoms: _232  and  _235
REMARK  106  A    between atoms: _235  and  _236
REMARK  107  A    between atoms: _241  and  _243
REMARK  108  A    between atoms: _243  and  _244
REMARK  109  A    between atoms: _243  and  _246
REMARK  110  A    between atoms: _246  and  _247
REMARK  111  A    between atoms: _250  and  _252
REMARK  112  A    between atoms: _252  and  _253
REMARK  113  A    between atoms: _255  and  _257
REMARK  114  A    between atoms: _257  and  _258
REMARK  115  A    between atoms: _257  and  _260
REMARK  116  A    between atoms: _260  and  _261
REMARK  117  A    between atoms: _264  and  _266
REMARK  118  A    between atoms: _266  and  _267
REMARK  119  A    between atoms: _270  and  _272
REMARK  120  A    between atoms: _272  and  _273
REMARK  121  A    between atoms: _275  and  _277
REMARK  122  A    between atoms: _277  and  _278
REMARK  123  A    between atoms: _277  and  _280
REMARK  124  A    between atoms: _283  and  _285
REMARK  125  A    between atoms: _285  and  _286
REMARK  126  A    between atoms: _288  and  _290
REMARK  127  A    between atoms: _290  and  _291
REMARK  128  A    between atoms: _290  and  _293
REMARK  129  A    between atoms: _293  and  _294
REMARK  130  A    between atoms: _300  and  _302
REMARK  131  A    between atoms: _302  and  _303
REMARK  132  A    between atoms: _302  and  _305
REMARK  133  A    between atoms: _305  and  _306
REMARK  134  A    between atoms: _311  and  _312
REMARK  135  A    between atoms: _314  and  _316
REMARK  136  A    between atoms: _316  and  _317
REMARK  137  A    between atoms: _316  and  _319
REMARK  138  A    between atoms: _319  and  _320
REMARK  139  A    between atoms: _325  and  _326
REMARK  140  A    between atoms: _328  and  _330
REMARK  141  A    between atoms: _330  and  _331
REMARK  142  A    between atoms: _330  and  _333
REMARK  143  A    between atoms: _336  and  _338
REMARK  144  A    between atoms: _338  and  _339
REMARK  145  A    between atoms: _338  and  _341
REMARK  146  A    between atoms: _341  and  _342
REMARK  147  A    between atoms: _345  and  _347
REMARK  148  A    between atoms: _347  and  _348
REMARK  149  A    between atoms: _347  and  _350
REMARK  150  A    between atoms: _353  and  _355
REMARK  151  A    between atoms: _355  and  _356
REMARK  152  A    between atoms: _355  and  _358
REMARK  153  A    between atoms: _358  and  _359
REMARK  154  A    between atoms: _362  and  _364
REMARK  155  A    between atoms: _364  and  _365
REMARK  156  A    between atoms: _364  and  _367
REMARK  157  A    between atoms: _367  and  _368
REMARK  158  A    between atoms: _371  and  _373
REMARK  159  A    between atoms: _373  and  _374
REMARK  160  A    between atoms: _373  and  _376
REMARK  161  A    between atoms: _376  and  _377
REMARK  162  A    between atoms: _377  and  _378
REMARK  163  A    between atoms: _378  and  _379
REMARK  164  A    between atoms: _379  and  _380
REMARK  165  A    between atoms: _384  and  _386
REMARK  166  A    between atoms: _386  and  _387
REMARK  167  A    between atoms: _386  and  _389
REMARK  168  A    between atoms: _389  and  _390
REMARK  169  A    between atoms: _395  and  _397
REMARK  170  A    between atoms: _397  and  _398
REMARK  171  A    between atoms: _397  and  _400
REMARK  172  A    between atoms: _400  and  _401
REMARK  173  A    between atoms: _411  and  _413
REMARK  174  A    between atoms: _413  and  _414
REMARK  175  A    between atoms: _413  and  _416
REMARK  176  A    between atoms: _416  and  _417
REMARK  177  A    between atoms: _417  and  _418
REMARK  178  A    between atoms: _421  and  _423
REMARK  179  A    between atoms: _423  and  _424
REMARK  180  A    between atoms: _423  and  _426
REMARK  181  A    between atoms: _426  and  _427
REMARK  182  A    between atoms: _429  and  _431
REMARK  183  A    between atoms: _431  and  _432
REMARK  184  A    between atoms: _431  and  _434
REMARK  185  A    between atoms: _434  and  _435
REMARK  186  A    between atoms: _441  and  _443
REMARK  187  A    between atoms: _443  and  _444
REMARK  188  A    between atoms: _443  and  _446
REMARK  189  A    between atoms: _446  and  _447
REMARK  190  A    between atoms: _450  and  _452
REMARK  191  A    between atoms: _452  and  _453
REMARK  192  A    between atoms: _452  and  _455
REMARK  193  A    between atoms: _458  and  _460
REMARK  194  A    between atoms: _460  and  _461
REMARK  195  A    between atoms: _463  and  _465
REMARK  196  A    between atoms: _465  and  _466
REMARK  197  A    between atoms: _465  and  _468
REMARK  198  A    between atoms: _468  and  _469
REMARK  199  A    between atoms: _472  and  _474
REMARK  200  A    between atoms: _474  and  _475
REMARK  201  A    between atoms: _474  and  _477
REMARK  202  A    between atoms: _477  and  _478
REMARK  203  A    between atoms: _478  and  _479
REMARK  204  A    between atoms: _479  and  _480
REMARK  205  A    between atoms: _480  and  _481
REMARK  206  A    between atoms: _485  and  _487
REMARK  207  A    between atoms: _487  and  _488
REMARK  208  A    between atoms: _487  and  _490
REMARK                            x       y       z     vdW  Elec       q    Type
REMARK                         _______ _______ _______ _____ _____    ______ ____
ROOT
ATOM      1  O   HOH     1      63.390   6.871  23.489  0.00  0.00    +0.000 OA
ENDROOT
TORSDOF 0
REMARK  Name = ../refined-set-2016/3b25/3b25_pocket.pdb
REMARK  208 active torsions:
REMARK  status: ('A' for Active; 'I' for Inactive)
REMARK    1  A    between atoms: _1  and  _3
REMARK    2  A    between atoms: _3  and  _4
REMARK    3  A    between atoms: _3  and  _6
REMARK    4  A    between atoms: _6  and  _7
REMARK    5  A    between atoms: _13  and  _15
REMARK    6  A    between atoms: _15  and  _16
REMARK    7  A    between atoms: _15  and  _18
REMARK    8  A    between atoms: _18  and  _19
REMARK    9  A    between atoms: _19  and  _20
REMARK   10  A    between atoms: _23  and  _25
REMARK   11  A    between atoms: _25  and  _26
REMARK   12  A    between atoms: _25  and  _28
REMARK   13  A    between atoms: _28  and  _29
REMARK   14  A    between atoms: _32  and  _34
REMARK   15  A    between atoms: _34  and  _35
REMARK   16  A    between atoms: _34  and  _37
REMARK   17  A    between atoms: _37  and  _38
REMARK   18  A    between atoms: _41  and  _43
REMARK   19  A    between atoms: _43  and  _44
REMARK   20  A    between atoms: _43  and  _46
REMARK   21  A    between atoms: _46  and  _47
REMARK   22  A    between atoms: _49  and  _51
REMARK   23  A    between atoms: _51  and  _52
REMARK   24  A    between atoms: _51  and  _54
REMARK   25  A    between atoms: _54  and  _55
REMARK   26  A    between atoms: _60  and  _62
REMARK   27  A    between atoms: _62  and  _63
REMARK   28  A    between atoms: _62  and  _65
REMARK   29  A    between atoms: _65  and  _66
REMARK   30  A    between atoms: _68  and  _70
REMARK   31  A    between atoms: _70  and  _71
REMARK   32  A    between atoms: _70  and  _73
REMARK   33  A    between atoms: _73  and  _74
REMARK   34  A    between atoms: _76  and  _78
REMARK   35  A    between atoms: _78  and  _79
REMARK   36  A    between atoms: _78  and  _81
REMARK   37  A    between atoms: _81  and  _82
REMARK   38  A    between atoms: _85  and  _87
REMARK   39  A    between atoms: _87  and  _88
REMARK   40  A    between atoms: _91  and  _93
REMARK   41  A    between atoms: _93  and  _94
REMARK   42  A    between atoms: _93  and  _96
REMARK   43  A    between atoms: _96  and  _97
REMARK   44  A    between atoms: _100  and  _102
REMARK   45  A    between atoms: _102  and  _103
REMARK   46  A    between atoms: _102  and  _105
REMARK   47  A    between atoms: _105  and  _106
REMARK   48  A    between atoms: _106  and  _107
REMARK   49  A    between atoms: _107  and  _108
REMARK   50  A    between atoms: _108  and  _109
REMARK   51  A    between atoms: _113  and  _115
REMARK   52  A    between atoms: _115  and  _116
REMARK   53  A    between atoms: _115  and  _118
REMARK   54  A    between atoms: _118  and  _119
REMARK   55  A    between atoms: _122  and  _124
REMARK   56  A    between atoms: _124  and  _125
REMARK   57  A    between atoms: _124  and  _127
REMARK   58  A    between atoms: _127  and  _128
REMARK   59  A    between atoms: _131  and  _133
REMARK   60  A    between atoms: _133  and  _134
REMARK   61  A    between atoms: _133  and  _136
REMARK   62  A    between atoms: _136  and  _137
REMARK   63  A    between atoms: _140  and  _142
REMARK   64  A    between atoms: _142  and  _143
REMARK   65  A    between atoms: _142  and  _145
REMARK   66  A    between atoms: _148  and  _150
REMARK   67  A    between atoms: _150  and  _151
REMARK   68  A    between atoms: _150  and  _153
REMARK   69  A    between atoms: _153  and  _154
REMARK   70  A    between atoms: _157  and  _159
REMARK   71  A    between atoms: _159  and  _160
REMARK   72  A    between atoms: _159  and  _162
REMARK   73  A    between atoms: _162  and  _163
REMARK   74  A    between atoms: _166  and  _168
REMARK   75  A    between atoms: _168  and  _169
REMARK   76  A    between atoms: _171  and  _173
REMARK   77  A    between atoms: _173  and  _174
REMARK   78  A    between atoms: _173  and  _176
REMARK   79  A    between atoms: _176  and  _177
REMARK   80  A    between atoms: _180  and  _182
REMARK   81  A    between atoms: _182  and  _183
REMARK   82  A    between atoms: _185  and  _187
REMARK   83  A    between atoms: _187  and  _188
REMARK   84  A    between atoms: _187  and  _190
REMARK   85  A    between atoms: _190  and  _191
REMARK   86  A    between atoms: _191  and  _192
REMARK   87  A    between atoms: _194  and  _196
REMARK   88  A    between atoms: _196  and  _197
REMARK   89  A    between atoms: _196  and  _199
REMARK   90  A    between atoms: _199  and  _200
REMARK   91  A    between atoms: _203  and  _205
REMARK   92  A    between atoms: _205  and  _206
REMARK   93  A    between atoms: _205  and  _208
REMARK   94  A    between atoms: _208  and  _209
REMARK   95  A    between atoms: _212  and  _214
REMARK   96  A    between atoms: _214  and  _215
REMARK   97  A    between atoms: _214  and  _217
REMARK   98  A    between atoms: _217  and  _218
REMARK   99  A    between atoms: _221  and  _223
REMARK  100  A    between atoms: _223  and  _224
REMARK  101  A    between atoms: _223  and  _226
REMARK  102  A    between atoms: _226  and  _227
REMARK  103  A    between atoms: _230  and  _232
REMARK  104  A    between atoms: _232  and  _233
REMARK  105  A    between atoms: _232  and  _235
REMARK  106  A    between atoms: _235  and  _236
REMARK  107  A    between atoms: _241  and  _243
REMARK  108  A    between atoms: _243  and  _244
REMARK  109  A    between atoms: _243  and  _246
REMARK  110  A    between atoms: _246  and  _247
REMARK  111  A    between atoms: _250  and  _252
REMARK  112  A    between atoms: _252  and  _253
REMARK  113  A    between atoms: _255  and  _257
REMARK  114  A    between atoms: _257  and  _258
REMARK  115  A    between atoms: _257  and  _260
REMARK  116  A    between atoms: _260  and  _261
REMARK  117  A    between atoms: _264  and  _266
REMARK  118  A    between atoms: _266  and  _267
REMARK  119  A    between atoms: _270  and  _272
REMARK  120  A    between atoms: _272  and  _273
REMARK  121  A    between atoms: _275  and  _277
REMARK  122  A    between atoms: _277  and  _278
REMARK  123  A    between atoms: _277  and  _280
REMARK  124  A    between atoms: _283  and  _285
REMARK  125  A    between atoms: _285  and  _286
REMARK  126  A    between atoms: _288  and  _290
REMARK  127  A    between atoms: _290  and  _291
REMARK  128  A    between atoms: _290  and  _293
REMARK  129  A    between atoms: _293  and  _294
REMARK  130  A    between atoms: _300  and  _302
REMARK  131  A    between atoms: _302  and  _303
REMARK  132  A    between atoms: _302  and  _305
REMARK  133  A    between atoms: _305  and  _306
REMARK  134  A    between atoms: _311  and  _312
REMARK  135  A    between atoms: _314  and  _316
REMARK  136  A    between atoms: _316  and  _317
REMARK  137  A    between atoms: _316  and  _319
REMARK  138  A    between atoms: _319  and  _320
REMARK  139  A    between atoms: _325  and  _326
REMARK  140  A    between atoms: _328  and  _330
REMARK  141  A    between atoms: _330  and  _331
REMARK  142  A    between atoms: _330  and  _333
REMARK  143  A    between atoms: _336  and  _338
REMARK  144  A    between atoms: _338  and  _339
REMARK  145  A    between atoms: _338  and  _341
REMARK  146  A    between atoms: _341  and  _342
REMARK  147  A    between atoms: _345  and  _347
REMARK  148  A    between atoms: _347  and  _348
REMARK  149  A    between atoms: _347  and  _350
REMARK  150  A    between atoms: _353  and  _355
REMARK  151  A    between atoms: _355  and  _356
REMARK  152  A    between atoms: _355  and  _358
REMARK  153  A    between atoms: _358  and  _359
REMARK  154  A    between atoms: _362  and  _364
REMARK  155  A    between atoms: _364  and  _365
REMARK  156  A    between atoms: _364  and  _367
REMARK  157  A    between atoms: _367  and  _368
REMARK  158  A    between atoms: _371  and  _373
REMARK  159  A    between atoms: _373  and  _374
REMARK  160  A    between atoms: _373  and  _376
REMARK  161  A    between atoms: _376  and  _377
REMARK  162  A    between atoms: _377  and  _378
REMARK  163  A    between atoms: _378  and  _379
REMARK  164  A    between atoms: _379  and  _380
REMARK  165  A    between atoms: _384  and  _386
REMARK  166  A    between atoms: _386  and  _387
REMARK  167  A    between atoms: _386  and  _389
REMARK  168  A    between atoms: _389  and  _390
REMARK  169  A    between atoms: _395  and  _397
REMARK  170  A    between atoms: _397  and  _398
REMARK  171  A    between atoms: _397  and  _400
REMARK  172  A    between atoms: _400  and  _401
REMARK  173  A    between atoms: _411  and  _413
REMARK  174  A    between atoms: _413  and  _414
REMARK  175  A    between atoms: _413  and  _416
REMARK  176  A    between atoms: _416  and  _417
REMARK  177  A    between atoms: _417  and  _418
REMARK  178  A    between atoms: _421  and  _423
REMARK  179  A    between atoms: _423  and  _424
REMARK  180  A    between atoms: _423  and  _426
REMARK  181  A    between atoms: _426  and  _427
REMARK  182  A    between atoms: _429  and  _431
REMARK  183  A    between atoms: _431  and  _432
REMARK  184  A    between atoms: _431  and  _434
REMARK  185  A    between atoms: _434  and  _435
REMARK  186  A    between atoms: _441  and  _443
REMARK  187  A    between atoms: _443  and  _444
REMARK  188  A    between atoms: _443  and  _446
REMARK  189  A    between atoms: _446  and  _447
REMARK  190  A    between atoms: _450  and  _452
REMARK  191  A    between atoms: _452  and  _453
REMARK  192  A    between atoms: _452  and  _455
REMARK  193  A    between atoms: _458  and  _460
REMARK  194  A    between atoms: _460  and  _461
REMARK  195  A    between atoms: _463  and  _465
REMARK  196  A    between atoms: _465  and  _466
REMARK  197  A    between atoms: _465  and  _468
REMARK  198  A    between atoms: _468  and  _469
REMARK  199  A    between atoms: _472  and  _474
REMARK  200  A    between atoms: _474  and  _475
REMARK  201  A    between atoms: _474  and  _477
REMARK  202  A    between atoms: _477  and  _478
REMARK  203  A    between atoms: _478  and  _479
REMARK  204  A    between atoms: _479  and  _480
REMARK  205  A    between atoms: _480  and  _481
REMARK  206  A    between atoms: _485  and  _487
REMARK  207  A    between atoms: _487  and  _488
REMARK  208  A    between atoms: _487  and  _490
REMARK                            x       y       z     vdW  Elec       q    Type
REMARK                         _______ _______ _______ _____ _____    ______ ____
ROOT
ATOM      1  O   HOH     1      66.119   5.733  30.439  0.00  0.00    +0.000 OA
ENDROOT
TORSDOF 0
REMARK  Name = ../refined-set-2016/3b25/3b25_pocket.pdb
REMARK  208 active torsions:
REMARK  status: ('A' for Active; 'I' for Inactive)
REMARK    1  A    between atoms: _1  and  _3
REMARK    2  A    between atoms: _3  and  _4
REMARK    3  A    between atoms: _3  and  _6
REMARK    4  A    between atoms: _6  and  _7
REMARK    5  A    between atoms: _13  and  _15
REMARK    6  A    between atoms: _15  and  _16
REMARK    7  A    between atoms: _15  and  _18
REMARK    8  A    between atoms: _18  and  _19
REMARK    9  A    between atoms: _19  and  _20
REMARK   10  A    between atoms: _23  and  _25
REMARK   11  A    between atoms: _25  and  _26
REMARK   12  A    between atoms: _25  and  _28
REMARK   13  A    between atoms: _28  and  _29
REMARK   14  A    between atoms: _32  and  _34
REMARK   15  A    between atoms: _34  and  _35
REMARK   16  A    between atoms: _34  and  _37
REMARK   17  A    between atoms: _37  and  _38
REMARK   18  A    between atoms: _41  and  _43
REMARK   19  A    between atoms: _43  and  _44
REMARK   20  A    between atoms: _43  and  _46
REMARK   21  A    between atoms: _46  and  _47
REMARK   22  A    between atoms: _49  and  _51
REMARK   23  A    between atoms: _51  and  _52
REMARK   24  A    between atoms: _51  and  _54
REMARK   25  A    between atoms: _54  and  _55
REMARK   26  A    between atoms: _60  and  _62
REMARK   27  A    between atoms: _62  and  _63
REMARK   28  A    between atoms: _62  and  _65
REMARK   29  A    between atoms: _65  and  _66
REMARK   30  A    between atoms: _68  and  _70
REMARK   31  A    between atoms: _70  and  _71
REMARK   32  A    between atoms: _70  and  _73
REMARK   33  A    between atoms: _73  and  _74
REMARK   34  A    between atoms: _76  and  _78
REMARK   35  A    between atoms: _78  and  _79
REMARK   36  A    between atoms: _78  and  _81
REMARK   37  A    between atoms: _81  and  _82
REMARK   38  A    between atoms: _85  and  _87
REMARK   39  A    between atoms: _87  and  _88
REMARK   40  A    between atoms: _91  and  _93
REMARK   41  A    between atoms: _93  and  _94
REMARK   42  A    between atoms: _93  and  _96
REMARK   43  A    between atoms: _96  and  _97
REMARK   44  A    between atoms: _100  and  _102
REMARK   45  A    between atoms: _102  and  _103
REMARK   46  A    between atoms: _102  and  _105
REMARK   47  A    between atoms: _105  and  _106
REMARK   48  A    between atoms: _106  and  _107
REMARK   49  A    between atoms: _107  and  _108
REMARK   50  A    between atoms: _108  and  _109
REMARK   51  A    between atoms: _113  and  _115
REMARK   52  A    between atoms: _115  and  _116
REMARK   53  A    between atoms: _115  and  _118
REMARK   54  A    between atoms: _118  and  _119
REMARK   55  A    between atoms: _122  and  _124
REMARK   56  A    between atoms: _124  and  _125
REMARK   57  A    between atoms: _124  and  _127
REMARK   58  A    between atoms: _127  and  _128
REMARK   59  A    between atoms: _131  and  _133
REMARK   60  A    between atoms: _133  and  _134
REMARK   61  A    between atoms: _133  and  _136
REMARK   62  A    between atoms: _136  and  _137
REMARK   63  A    between atoms: _140  and  _142
REMARK   64  A    between atoms: _142  and  _143
REMARK   65  A    between atoms: _142  and  _145
REMARK   66  A    between atoms: _148  and  _150
REMARK   67  A    between atoms: _150  and  _151
REMARK   68  A    between atoms: _150  and  _153
REMARK   69  A    between atoms: _153  and  _154
REMARK   70  A    between atoms: _157  and  _159
REMARK   71  A    between atoms: _159  and  _160
REMARK   72  A    between atoms: _159  and  _162
REMARK   73  A    between atoms: _162  and  _163
REMARK   74  A    between atoms: _166  and  _168
REMARK   75  A    between atoms: _168  and  _169
REMARK   76  A    between atoms: _171  and  _173
REMARK   77  A    between atoms: _173  and  _174
REMARK   78  A    between atoms: _173  and  _176
REMARK   79  A    between atoms: _176  and  _177
REMARK   80  A    between atoms: _180  and  _182
REMARK   81  A    between atoms: _182  and  _183
REMARK   82  A    between atoms: _185  and  _187
REMARK   83  A    between atoms: _187  and  _188
REMARK   84  A    between atoms: _187  and  _190
REMARK   85  A    between atoms: _190  and  _191
REMARK   86  A    between atoms: _191  and  _192
REMARK   87  A    between atoms: _194  and  _196
REMARK   88  A    between atoms: _196  and  _197
REMARK   89  A    between atoms: _196  and  _199
REMARK   90  A    between atoms: _199  and  _200
REMARK   91  A    between atoms: _203  and  _205
REMARK   92  A    between atoms: _205  and  _206
REMARK   93  A    between atoms: _205  and  _208
REMARK   94  A    between atoms: _208  and  _209
REMARK   95  A    between atoms: _212  and  _214
REMARK   96  A    between atoms: _214  and  _215
REMARK   97  A    between atoms: _214  and  _217
REMARK   98  A    between atoms: _217  and  _218
REMARK   99  A    between atoms: _221  and  _223
REMARK  100  A    between atoms: _223  and  _224
REMARK  101  A    between atoms: _223  and  _226
REMARK  102  A    between atoms: _226  and  _227
REMARK  103  A    between atoms: _230  and  _232
REMARK  104  A    between atoms: _232  and  _233
REMARK  105  A    between atoms: _232  and  _235
REMARK  106  A    between atoms: _235  and  _236
REMARK  107  A    between atoms: _241  and  _243
REMARK  108  A    between atoms: _243  and  _244
REMARK  109  A    between atoms: _243  and  _246
REMARK  110  A    between atoms: _246  and  _247
REMARK  111  A    between atoms: _250  and  _252
REMARK  112  A    between atoms: _252  and  _253
REMARK  113  A    between atoms: _255  and  _257
REMARK  114  A    between atoms: _257  and  _258
REMARK  115  A    between atoms: _257  and  _260
REMARK  116  A    between atoms: _260  and  _261
REMARK  117  A    between atoms: _264  and  _266
REMARK  118  A    between atoms: _266  and  _267
REMARK  119  A    between atoms: _270  and  _272
REMARK  120  A    between atoms: _272  and  _273
REMARK  121  A    between atoms: _275  and  _277
REMARK  122  A    between atoms: _277  and  _278
REMARK  123  A    between atoms: _277  and  _280
REMARK  124  A    between atoms: _283  and  _285
REMARK  125  A    between atoms: _285  and  _286
REMARK  126  A    between atoms: _288  and  _290
REMARK  127  A    between atoms: _290  and  _291
REMARK  128  A    between atoms: _290  and  _293
REMARK  129  A    between atoms: _293  and  _294
REMARK  130  A    between atoms: _300  and  _302
REMARK  131  A    between atoms: _302  and  _303
REMARK  132  A    between atoms: _302  and  _305
REMARK  133  A    between atoms: _305  and  _306
REMARK  134  A    between atoms: _311  and  _312
REMARK  135  A    between atoms: _314  and  _316
REMARK  136  A    between atoms: _316  and  _317
REMARK  137  A    between atoms: _316  and  _319
REMARK  138  A    between atoms: _319  and  _320
REMARK  139  A    between atoms: _325  and  _326
REMARK  140  A    between atoms: _328  and  _330
REMARK  141  A    between atoms: _330  and  _331
REMARK  142  A    between atoms: _330  and  _333
REMARK  143  A    between atoms: _336  and  _338
REMARK  144  A    between atoms: _338  and  _339
REMARK  145  A    between atoms: _338  and  _341
REMARK  146  A    between atoms: _341  and  _342
REMARK  147  A    between atoms: _345  and  _347
REMARK  148  A    between atoms: _347  and  _348
REMARK  149  A    between atoms: _347  and  _350
REMARK  150  A    between atoms: _353  and  _355
REMARK  151  A    between atoms: _355  and  _356
REMARK  152  A    between atoms: _355  and  _358
REMARK  153  A    between atoms: _358  and  _359
REMARK  154  A    between atoms: _362  and  _364
REMARK  155  A    between atoms: _364  and  _365
REMARK  156  A    between atoms: _364  and  _367
REMARK  157  A    between atoms: _367  and  _368
REMARK  158  A    between atoms: _371  and  _373
REMARK  159  A    between atoms: _373  and  _374
REMARK  160  A    between atoms: _373  and  _376
REMARK  161  A    between atoms: _376  and  _377
REMARK  162  A    between atoms: _377  and  _378
REMARK  163  A    between atoms: _378  and  _379
REMARK  164  A    between atoms: _379  and  _380
REMARK  165  A    between atoms: _384  and  _386
REMARK  166  A    between atoms: _386  and  _387
REMARK  167  A    between atoms: _386  and  _389
REMARK  168  A    between atoms: _389  and  _390
REMARK  169  A    between atoms: _395  and  _397
REMARK  170  A    between atoms: _397  and  _398
REMARK  171  A    between atoms: _397  and  _400
REMARK  172  A    between atoms: _400  and  _401
REMARK  173  A    between atoms: _411  and  _413
REMARK  174  A    between atoms: _413  and  _414
REMARK  175  A    between atoms: _413  and  _416
REMARK  176  A    between atoms: _416  and  _417
REMARK  177  A    between atoms: _417  and  _418
REMARK  178  A    between atoms: _421  and  _423
REMARK  179  A    between atoms: _423  and  _424
REMARK  180  A    between atoms: _423  and  _426
REMARK  181  A    between atoms: _426  and  _427
REMARK  182  A    between atoms: _429  and  _431
REMARK  183  A    between atoms: _431  and  _432
REMARK  184  A    between atoms: _431  and  _434
REMARK  185  A    between atoms: _434  and  _435
REMARK  186  A    between atoms: _441  and  _443
REMARK  187  A    between atoms: _443  and  _444
REMARK  188  A    between atoms: _443  and  _446
REMARK  189  A    between atoms: _446  and  _447
REMARK  190  A    between atoms: _450  and  _452
REMARK  191  A    between atoms: _452  and  _453
REMARK  192  A    between atoms: _452  and  _455
REMARK  193  A    between atoms: _458  and  _460
REMARK  194  A    between atoms: _460  and  _461
REMARK  195  A    between atoms: _463  and  _465
REMARK  196  A    between atoms: _465  and  _466
REMARK  197  A    between atoms: _465  and  _468
REMARK  198  A    between atoms: _468  and  _469
REMARK  199  A    between atoms: _472  and  _474
REMARK  200  A    between atoms: _474  and  _475
REMARK  201  A    between atoms: _474  and  _477
REMARK  202  A    between atoms: _477  and  _478
REMARK  203  A    between atoms: _478  and  _479
REMARK  204  A    between atoms: _479  and  _480
REMARK  205  A    between atoms: _480  and  _481
REMARK  206  A    between atoms: _485  and  _487
REMARK  207  A    between atoms: _487  and  _488
REMARK  208  A    between atoms: _487  and  _490
REMARK                            x       y       z     vdW  Elec       q    Type
REMARK                         _______ _______ _______ _____ _____    ______ ____
ROOT
ATOM      1  O   HOH     1      61.843   9.546  28.742  0.00  0.00    +0.000 OA
ENDROOT
TORSDOF 0
REMARK  Name = ../refined-set-2016/3b25/3b25_pocket.pdb
REMARK  208 active torsions:
REMARK  status: ('A' for Active; 'I' for Inactive)
REMARK    1  A    between atoms: _1  and  _3
REMARK    2  A    between atoms: _3  and  _4
REMARK    3  A    between atoms: _3  and  _6
REMARK    4  A    between atoms: _6  and  _7
REMARK    5  A    between atoms: _13  and  _15
REMARK    6  A    between atoms: _15  and  _16
REMARK    7  A    between atoms: _15  and  _18
REMARK    8  A    between atoms: _18  and  _19
REMARK    9  A    between atoms: _19  and  _20
REMARK   10  A    between atoms: _23  and  _25
REMARK   11  A    between atoms: _25  and  _26
REMARK   12  A    between atoms: _25  and  _28
REMARK   13  A    between atoms: _28  and  _29
REMARK   14  A    between atoms: _32  and  _34
REMARK   15  A    between atoms: _34  and  _35
REMARK   16  A    between atoms: _34  and  _37
REMARK   17  A    between atoms: _37  and  _38
REMARK   18  A    between atoms: _41  and  _43
REMARK   19  A    between atoms: _43  and  _44
REMARK   20  A    between atoms: _43  and  _46
REMARK   21  A    between atoms: _46  and  _47
REMARK   22  A    between atoms: _49  and  _51
REMARK   23  A    between atoms: _51  and  _52
REMARK   24  A    between atoms: _51  and  _54
REMARK   25  A    between atoms: _54  and  _55
REMARK   26  A    between atoms: _60  and  _62
REMARK   27  A    between atoms: _62  and  _63
REMARK   28  A    between atoms: _62  and  _65
REMARK   29  A    between atoms: _65  and  _66
REMARK   30  A    between atoms: _68  and  _70
REMARK   31  A    between atoms: _70  and  _71
REMARK   32  A    between atoms: _70  and  _73
REMARK   33  A    between atoms: _73  and  _74
REMARK   34  A    between atoms: _76  and  _78
REMARK   35  A    between atoms: _78  and  _79
REMARK   36  A    between atoms: _78  and  _81
REMARK   37  A    between atoms: _81  and  _82
REMARK   38  A    between atoms: _85  and  _87
REMARK   39  A    between atoms: _87  and  _88
REMARK   40  A    between atoms: _91  and  _93
REMARK   41  A    between atoms: _93  and  _94
REMARK   42  A    between atoms: _93  and  _96
REMARK   43  A    between atoms: _96  and  _97
REMARK   44  A    between atoms: _100  and  _102
REMARK   45  A    between atoms: _102  and  _103
REMARK   46  A    between atoms: _102  and  _105
REMARK   47  A    between atoms: _105  and  _106
REMARK   48  A    between atoms: _106  and  _107
REMARK   49  A    between atoms: _107  and  _108
REMARK   50  A    between atoms: _108  and  _109
REMARK   51  A    between atoms: _113  and  _115
REMARK   52  A    between atoms: _115  and  _116
REMARK   53  A    between atoms: _115  and  _118
REMARK   54  A    between atoms: _118  and  _119
REMARK   55  A    between atoms: _122  and  _124
REMARK   56  A    between atoms: _124  and  _125
REMARK   57  A    between atoms: _124  and  _127
REMARK   58  A    between atoms: _127  and  _128
REMARK   59  A    between atoms: _131  and  _133
REMARK   60  A    between atoms: _133  and  _134
REMARK   61  A    between atoms: _133  and  _136
REMARK   62  A    between atoms: _136  and  _137
REMARK   63  A    between atoms: _140  and  _142
REMARK   64  A    between atoms: _142  and  _143
REMARK   65  A    between atoms: _142  and  _145
REMARK   66  A    between atoms: _148  and  _150
REMARK   67  A    between atoms: _150  and  _151
REMARK   68  A    between atoms: _150  and  _153
REMARK   69  A    between atoms: _153  and  _154
REMARK   70  A    between atoms: _157  and  _159
REMARK   71  A    between atoms: _159  and  _160
REMARK   72  A    between atoms: _159  and  _162
REMARK   73  A    between atoms: _162  and  _163
REMARK   74  A    between atoms: _166  and  _168
REMARK   75  A    between atoms: _168  and  _169
REMARK   76  A    between atoms: _171  and  _173
REMARK   77  A    between atoms: _173  and  _174
REMARK   78  A    between atoms: _173  and  _176
REMARK   79  A    between atoms: _176  and  _177
REMARK   80  A    between atoms: _180  and  _182
REMARK   81  A    between atoms: _182  and  _183
REMARK   82  A    between atoms: _185  and  _187
REMARK   83  A    between atoms: _187  and  _188
REMARK   84  A    between atoms: _187  and  _190
REMARK   85  A    between atoms: _190  and  _191
REMARK   86  A    between atoms: _191  and  _192
REMARK   87  A    between atoms: _194  and  _196
REMARK   88  A    between atoms: _196  and  _197
REMARK   89  A    between atoms: _196  and  _199
REMARK   90  A    between atoms: _199  and  _200
REMARK   91  A    between atoms: _203  and  _205
REMARK   92  A    between atoms: _205  and  _206
REMARK   93  A    between atoms: _205  and  _208
REMARK   94  A    between atoms: _208  and  _209
REMARK   95  A    between atoms: _212  and  _214
REMARK   96  A    between atoms: _214  and  _215
REMARK   97  A    between atoms: _214  and  _217
REMARK   98  A    between atoms: _217  and  _218
REMARK   99  A    between atoms: _221  and  _223
REMARK  100  A    between atoms: _223  and  _224
REMARK  101  A    between atoms: _223  and  _226
REMARK  102  A    between atoms: _226  and  _227
REMARK  103  A    between atoms: _230  and  _232
REMARK  104  A    between atoms: _232  and  _233
REMARK  105  A    between atoms: _232  and  _235
REMARK  106  A    between atoms: _235  and  _236
REMARK  107  A    between atoms: _241  and  _243
REMARK  108  A    between atoms: _243  and  _244
REMARK  109  A    between atoms: _243  and  _246
REMARK  110  A    between atoms: _246  and  _247
REMARK  111  A    between atoms: _250  and  _252
REMARK  112  A    between atoms: _252  and  _253
REMARK  113  A    between atoms: _255  and  _257
REMARK  114  A    between atoms: _257  and  _258
REMARK  115  A    between atoms: _257  and  _260
REMARK  116  A    between atoms: _260  and  _261
REMARK  117  A    between atoms: _264  and  _266
REMARK  118  A    between atoms: _266  and  _267
REMARK  119  A    between atoms: _270  and  _272
REMARK  120  A    between atoms: _272  and  _273
REMARK  121  A    between atoms: _275  and  _277
REMARK  122  A    between atoms: _277  and  _278
REMARK  123  A    between atoms: _277  and  _280
REMARK  124  A    between atoms: _283  and  _285
REMARK  125  A    between atoms: _285  and  _286
REMARK  126  A    between atoms: _288  and  _290
REMARK  127  A    between atoms: _290  and  _291
REMARK  128  A    between atoms: _290  and  _293
REMARK  129  A    between atoms: _293  and  _294
REMARK  130  A    between atoms: _300  and  _302
REMARK  131  A    between atoms: _302  and  _303
REMARK  132  A    between atoms: _302  and  _305
REMARK  133  A    between atoms: _305  and  _306
REMARK  134  A    between atoms: _311  and  _312
REMARK  135  A    between atoms: _314  and  _316
REMARK  136  A    between atoms: _316  and  _317
REMARK  137  A    between atoms: _316  and  _319
REMARK  138  A    between atoms: _319  and  _320
REMARK  139  A    between atoms: _325  and  _326
REMARK  140  A    between atoms: _328  and  _330
REMARK  141  A    between atoms: _330  and  _331
REMARK  142  A    between atoms: _330  and  _333
REMARK  143  A    between atoms: _336  and  _338
REMARK  144  A    between atoms: _338  and  _339
REMARK  145  A    between atoms: _338  and  _341
REMARK  146  A    between atoms: _341  and  _342
REMARK  147  A    between atoms: _345  and  _347
REMARK  148  A    between atoms: _347  and  _348
REMARK  149  A    between atoms: _347  and  _350
REMARK  150  A    between atoms: _353  and  _355
REMARK  151  A    between atoms: _355  and  _356
REMARK  152  A    between atoms: _355  and  _358
REMARK  153  A    between atoms: _358  and  _359
REMARK  154  A    between atoms: _362  and  _364
REMARK  155  A    between atoms: _364  and  _365
REMARK  156  A    between atoms: _364  and  _367
REMARK  157  A    between atoms: _367  and  _368
REMARK  158  A    between atoms: _371  and  _373
REMARK  159  A    between atoms: _373  and  _374
REMARK  160  A    between atoms: _373  and  _376
REMARK  161  A    between atoms: _376  and  _377
REMARK  162  A    between atoms: _377  and  _378
REMARK  163  A    between atoms: _378  and  _379
REMARK  164  A    between atoms: _379  and  _380
REMARK  165  A    between atoms: _384  and  _386
REMARK  166  A    between atoms: _386  and  _387
REMARK  167  A    between atoms: _386  and  _389
REMARK  168  A    between atoms: _389  and  _390
REMARK  169  A    between atoms: _395  and  _397
REMARK  170  A    between atoms: _397  and  _398
REMARK  171  A    between atoms: _397  and  _400
REMARK  172  A    between atoms: _400  and  _401
REMARK  173  A    between atoms: _411  and  _413
REMARK  174  A    between atoms: _413  and  _414
REMARK  175  A    between atoms: _413  and  _416
REMARK  176  A    between atoms: _416  and  _417
REMARK  177  A    between atoms: _417  and  _418
REMARK  178  A    between atoms: _421  and  _423
REMARK  179  A    between atoms: _423  and  _424
REMARK  180  A    between atoms: _423  and  _426
REMARK  181  A    between atoms: _426  and  _427
REMARK  182  A    between atoms: _429  and  _431
REMARK  183  A    between atoms: _431  and  _432
REMARK  184  A    between atoms: _431  and  _434
REMARK  185  A    between atoms: _434  and  _435
REMARK  186  A    between atoms: _441  and  _443
REMARK  187  A    between atoms: _443  and  _444
REMARK  188  A    between atoms: _443  and  _446
REMARK  189  A    between atoms: _446  and  _447
REMARK  190  A    between atoms: _450  and  _452
REMARK  191  A    between atoms: _452  and  _453
REMARK  192  A    between atoms: _452  and  _455
REMARK  193  A    between atoms: _458  and  _460
REMARK  194  A    between atoms: _460  and  _461
REMARK  195  A    between atoms: _463  and  _465
REMARK  196  A    between atoms: _465  and  _466
REMARK  197  A    between atoms: _465  and  _468
REMARK  198  A    between atoms: _468  and  _469
REMARK  199  A    between atoms: _472  and  _474
REMARK  200  A    between atoms: _474  and  _475
REMARK  201  A    between atoms: _474  and  _477
REMARK  202  A    between atoms: _477  and  _478
REMARK  203  A    between atoms: _478  and  _479
REMARK  204  A    between atoms: _479  and  _480
REMARK  205  A    between atoms: _480  and  _481
REMARK  206  A    between atoms: _485  and  _487
REMARK  207  A    between atoms: _487  and  _488
REMARK  208  A    between atoms: _487  and  _490
REMARK                            x       y       z     vdW  Elec       q    Type
REMARK                         _______ _______ _______ _____ _____    ______ ____
ROOT
ATOM      1  O   HOH     1      64.487   7.954  32.445  0.00  0.00    +0.000 OA
ENDROOT
TORSDOF 0
REMARK  Name = ../refined-set-2016/3b25/3b25_pocket.pdb
REMARK  208 active torsions:
REMARK  status: ('A' for Active; 'I' for Inactive)
REMARK    1  A    between atoms: _1  and  _3
REMARK    2  A    between atoms: _3  and  _4
REMARK    3  A    between atoms: _3  and  _6
REMARK    4  A    between atoms: _6  and  _7
REMARK    5  A    between atoms: _13  and  _15
REMARK    6  A    between atoms: _15  and  _16
REMARK    7  A    between atoms: _15  and  _18
REMARK    8  A    between atoms: _18  and  _19
REMARK    9  A    between atoms: _19  and  _20
REMARK   10  A    between atoms: _23  and  _25
REMARK   11  A    between atoms: _25  and  _26
REMARK   12  A    between atoms: _25  and  _28
REMARK   13  A    between atoms: _28  and  _29
REMARK   14  A    between atoms: _32  and  _34
REMARK   15  A    between atoms: _34  and  _35
REMARK   16  A    between atoms: _34  and  _37
REMARK   17  A    between atoms: _37  and  _38
REMARK   18  A    between atoms: _41  and  _43
REMARK   19  A    between atoms: _43  and  _44
REMARK   20  A    between atoms: _43  and  _46
REMARK   21  A    between atoms: _46  and  _47
REMARK   22  A    between atoms: _49  and  _51
REMARK   23  A    between atoms: _51  and  _52
REMARK   24  A    between atoms: _51  and  _54
REMARK   25  A    between atoms: _54  and  _55
REMARK   26  A    between atoms: _60  and  _62
REMARK   27  A    between atoms: _62  and  _63
REMARK   28  A    between atoms: _62  and  _65
REMARK   29  A    between atoms: _65  and  _66
REMARK   30  A    between atoms: _68  and  _70
REMARK   31  A    between atoms: _70  and  _71
REMARK   32  A    between atoms: _70  and  _73
REMARK   33  A    between atoms: _73  and  _74
REMARK   34  A    between atoms: _76  and  _78
REMARK   35  A    between atoms: _78  and  _79
REMARK   36  A    between atoms: _78  and  _81
REMARK   37  A    between atoms: _81  and  _82
REMARK   38  A    between atoms: _85  and  _87
REMARK   39  A    between atoms: _87  and  _88
REMARK   40  A    between atoms: _91  and  _93
REMARK   41  A    between atoms: _93  and  _94
REMARK   42  A    between atoms: _93  and  _96
REMARK   43  A    between atoms: _96  and  _97
REMARK   44  A    between atoms: _100  and  _102
REMARK   45  A    between atoms: _102  and  _103
REMARK   46  A    between atoms: _102  and  _105
REMARK   47  A    between atoms: _105  and  _106
REMARK   48  A    between atoms: _106  and  _107
REMARK   49  A    between atoms: _107  and  _108
REMARK   50  A    between atoms: _108  and  _109
REMARK   51  A    between atoms: _113  and  _115
REMARK   52  A    between atoms: _115  and  _116
REMARK   53  A    between atoms: _115  and  _118
REMARK   54  A    between atoms: _118  and  _119
REMARK   55  A    between atoms: _122  and  _124
REMARK   56  A    between atoms: _124  and  _125
REMARK   57  A    between atoms: _124  and  _127
REMARK   58  A    between atoms: _127  and  _128
REMARK   59  A    between atoms: _131  and  _133
REMARK   60  A    between atoms: _133  and  _134
REMARK   61  A    between atoms: _133  and  _136
REMARK   62  A    between atoms: _136  and  _137
REMARK   63  A    between atoms: _140  and  _142
REMARK   64  A    between atoms: _142  and  _143
REMARK   65  A    between atoms: _142  and  _145
REMARK   66  A    between atoms: _148  and  _150
REMARK   67  A    between atoms: _150  and  _151
REMARK   68  A    between atoms: _150  and  _153
REMARK   69  A    between atoms: _153  and  _154
REMARK   70  A    between atoms: _157  and  _159
REMARK   71  A    between atoms: _159  and  _160
REMARK   72  A    between atoms: _159  and  _162
REMARK   73  A    between atoms: _162  and  _163
REMARK   74  A    between atoms: _166  and  _168
REMARK   75  A    between atoms: _168  and  _169
REMARK   76  A    between atoms: _171  and  _173
REMARK   77  A    between atoms: _173  and  _174
REMARK   78  A    between atoms: _173  and  _176
REMARK   79  A    between atoms: _176  and  _177
REMARK   80  A    between atoms: _180  and  _182
REMARK   81  A    between atoms: _182  and  _183
REMARK   82  A    between atoms: _185  and  _187
REMARK   83  A    between atoms: _187  and  _188
REMARK   84  A    between atoms: _187  and  _190
REMARK   85  A    between atoms: _190  and  _191
REMARK   86  A    between atoms: _191  and  _192
REMARK   87  A    between atoms: _194  and  _196
REMARK   88  A    between atoms: _196  and  _197
REMARK   89  A    between atoms: _196  and  _199
REMARK   90  A    between atoms: _199  and  _200
REMARK   91  A    between atoms: _203  and  _205
REMARK   92  A    between atoms: _205  and  _206
REMARK   93  A    between atoms: _205  and  _208
REMARK   94  A    between atoms: _208  and  _209
REMARK   95  A    between atoms: _212  and  _214
REMARK   96  A    between atoms: _214  and  _215
REMARK   97  A    between atoms: _214  and  _217
REMARK   98  A    between atoms: _217  and  _218
REMARK   99  A    between atoms: _221  and  _223
REMARK  100  A    between atoms: _223  and  _224
REMARK  101  A    between atoms: _223  and  _226
REMARK  102  A    between atoms: _226  and  _227
REMARK  103  A    between atoms: _230  and  _232
REMARK  104  A    between atoms: _232  and  _233
REMARK  105  A    between atoms: _232  and  _235
REMARK  106  A    between atoms: _235  and  _236
REMARK  107  A    between atoms: _241  and  _243
REMARK  108  A    between atoms: _243  and  _244
REMARK  109  A    between atoms: _243  and  _246
REMARK  110  A    between atoms: _246  and  _247
REMARK  111  A    between atoms: _250  and  _252
REMARK  112  A    between atoms: _252  and  _253
REMARK  113  A    between atoms: _255  and  _257
REMARK  114  A    between atoms: _257  and  _258
REMARK  115  A    between atoms: _257  and  _260
REMARK  116  A    between atoms: _260  and  _261
REMARK  117  A    between atoms: _264  and  _266
REMARK  118  A    between atoms: _266  and  _267
REMARK  119  A    between atoms: _270  and  _272
REMARK  120  A    between atoms: _272  and  _273
REMARK  121  A    between atoms: _275  and  _277
REMARK  122  A    between atoms: _277  and  _278
REMARK  123  A    between atoms: _277  and  _280
REMARK  124  A    between atoms: _283  and  _285
REMARK  125  A    between atoms: _285  and  _286
REMARK  126  A    between atoms: _288  and  _290
REMARK  127  A    between atoms: _290  and  _291
REMARK  128  A    between atoms: _290  and  _293
REMARK  129  A    between atoms: _293  and  _294
REMARK  130  A    between atoms: _300  and  _302
REMARK  131  A    between atoms: _302  and  _303
REMARK  132  A    between atoms: _302  and  _305
REMARK  133  A    between atoms: _305  and  _306
REMARK  134  A    between atoms: _311  and  _312
REMARK  135  A    between atoms: _314  and  _316
REMARK  136  A    between atoms: _316  and  _317
REMARK  137  A    between atoms: _316  and  _319
REMARK  138  A    between atoms: _319  and  _320
REMARK  139  A    between atoms: _325  and  _326
REMARK  140  A    between atoms: _328  and  _330
REMARK  141  A    between atoms: _330  and  _331
REMARK  142  A    between atoms: _330  and  _333
REMARK  143  A    between atoms: _336  and  _338
REMARK  144  A    between atoms: _338  and  _339
REMARK  145  A    between atoms: _338  and  _341
REMARK  146  A    between atoms: _341  and  _342
REMARK  147  A    between atoms: _345  and  _347
REMARK  148  A    between atoms: _347  and  _348
REMARK  149  A    between atoms: _347  and  _350
REMARK  150  A    between atoms: _353  and  _355
REMARK  151  A    between atoms: _355  and  _356
REMARK  152  A    between atoms: _355  and  _358
REMARK  153  A    between atoms: _358  and  _359
REMARK  154  A    between atoms: _362  and  _364
REMARK  155  A    between atoms: _364  and  _365
REMARK  156  A    between atoms: _364  and  _367
REMARK  157  A    between atoms: _367  and  _368
REMARK  158  A    between atoms: _371  and  _373
REMARK  159  A    between atoms: _373  and  _374
REMARK  160  A    between atoms: _373  and  _376
REMARK  161  A    between atoms: _376  and  _377
REMARK  162  A    between atoms: _377  and  _378
REMARK  163  A    between atoms: _378  and  _379
REMARK  164  A    between atoms: _379  and  _380
REMARK  165  A    between atoms: _384  and  _386
REMARK  166  A    between atoms: _386  and  _387
REMARK  167  A    between atoms: _386  and  _389
REMARK  168  A    between atoms: _389  and  _390
REMARK  169  A    between atoms: _395  and  _397
REMARK  170  A    between atoms: _397  and  _398
REMARK  171  A    between atoms: _397  and  _400
REMARK  172  A    between atoms: _400  and  _401
REMARK  173  A    between atoms: _411  and  _413
REMARK  174  A    between atoms: _413  and  _414
REMARK  175  A    between atoms: _413  and  _416
REMARK  176  A    between atoms: _416  and  _417
REMARK  177  A    between atoms: _417  and  _418
REMARK  178  A    between atoms: _421  and  _423
REMARK  179  A    between atoms: _423  and  _424
REMARK  180  A    between atoms: _423  and  _426
REMARK  181  A    between atoms: _426  and  _427
REMARK  182  A    between atoms: _429  and  _431
REMARK  183  A    between atoms: _431  and  _432
REMARK  184  A    between atoms: _431  and  _434
REMARK  185  A    between atoms: _434  and  _435
REMARK  186  A    between atoms: _441  and  _443
REMARK  187  A    between atoms: _443  and  _444
REMARK  188  A    between atoms: _443  and  _446
REMARK  189  A    between atoms: _446  and  _447
REMARK  190  A    between atoms: _450  and  _452
REMARK  191  A    between atoms: _452  and  _453
REMARK  192  A    between atoms: _452  and  _455
REMARK  193  A    between atoms: _458  and  _460
REMARK  194  A    between atoms: _460  and  _461
REMARK  195  A    between atoms: _463  and  _465
REMARK  196  A    between atoms: _465  and  _466
REMARK  197  A    between atoms: _465  and  _468
REMARK  198  A    between atoms: _468  and  _469
REMARK  199  A    between atoms: _472  and  _474
REMARK  200  A    between atoms: _474  and  _475
REMARK  201  A    between atoms: _474  and  _477
REMARK  202  A    between atoms: _477  and  _478
REMARK  203  A    between atoms: _478  and  _479
REMARK  204  A    between atoms: _479  and  _480
REMARK  205  A    between atoms: _480  and  _481
REMARK  206  A    between atoms: _485  and  _487
REMARK  207  A    between atoms: _487  and  _488
REMARK  208  A    between atoms: _487  and  _490
REMARK                            x       y       z     vdW  Elec       q    Type
REMARK                         _______ _______ _______ _____ _____    ______ ____
ROOT
ATOM      1  O   HOH     1      66.901   7.492  25.135  0.00  0.00    +0.000 OA
ENDROOT
TORSDOF 0
REMARK  Name = ../refined-set-2016/3b25/3b25_pocket.pdb
REMARK  208 active torsions:
REMARK  status: ('A' for Active; 'I' for Inactive)
REMARK    1  A    between atoms: _1  and  _3
REMARK    2  A    between atoms: _3  and  _4
REMARK    3  A    between atoms: _3  and  _6
REMARK    4  A    between atoms: _6  and  _7
REMARK    5  A    between atoms: _13  and  _15
REMARK    6  A    between atoms: _15  and  _16
REMARK    7  A    between atoms: _15  and  _18
REMARK    8  A    between atoms: _18  and  _19
REMARK    9  A    between atoms: _19  and  _20
REMARK   10  A    between atoms: _23  and  _25
REMARK   11  A    between atoms: _25  and  _26
REMARK   12  A    between atoms: _25  and  _28
REMARK   13  A    between atoms: _28  and  _29
REMARK   14  A    between atoms: _32  and  _34
REMARK   15  A    between atoms: _34  and  _35
REMARK   16  A    between atoms: _34  and  _37
REMARK   17  A    between atoms: _37  and  _38
REMARK   18  A    between atoms: _41  and  _43
REMARK   19  A    between atoms: _43  and  _44
REMARK   20  A    between atoms: _43  and  _46
REMARK   21  A    between atoms: _46  and  _47
REMARK   22  A    between atoms: _49  and  _51
REMARK   23  A    between atoms: _51  and  _52
REMARK   24  A    between atoms: _51  and  _54
REMARK   25  A    between atoms: _54  and  _55
REMARK   26  A    between atoms: _60  and  _62
REMARK   27  A    between atoms: _62  and  _63
REMARK   28  A    between atoms: _62  and  _65
REMARK   29  A    between atoms: _65  and  _66
REMARK   30  A    between atoms: _68  and  _70
REMARK   31  A    between atoms: _70  and  _71
REMARK   32  A    between atoms: _70  and  _73
REMARK   33  A    between atoms: _73  and  _74
REMARK   34  A    between atoms: _76  and  _78
REMARK   35  A    between atoms: _78  and  _79
REMARK   36  A    between atoms: _78  and  _81
REMARK   37  A    between atoms: _81  and  _82
REMARK   38  A    between atoms: _85  and  _87
REMARK   39  A    between atoms: _87  and  _88
REMARK   40  A    between atoms: _91  and  _93
REMARK   41  A    between atoms: _93  and  _94
REMARK   42  A    between atoms: _93  and  _96
REMARK   43  A    between atoms: _96  and  _97
REMARK   44  A    between atoms: _100  and  _102
REMARK   45  A    between atoms: _102  and  _103
REMARK   46  A    between atoms: _102  and  _105
REMARK   47  A    between atoms: _105  and  _106
REMARK   48  A    between atoms: _106  and  _107
REMARK   49  A    between atoms: _107  and  _108
REMARK   50  A    between atoms: _108  and  _109
REMARK   51  A    between atoms: _113  and  _115
REMARK   52  A    between atoms: _115  and  _116
REMARK   53  A    between atoms: _115  and  _118
REMARK   54  A    between atoms: _118  and  _119
REMARK   55  A    between atoms: _122  and  _124
REMARK   56  A    between atoms: _124  and  _125
REMARK   57  A    between atoms: _124  and  _127
REMARK   58  A    between atoms: _127  and  _128
REMARK   59  A    between atoms: _131  and  _133
REMARK   60  A    between atoms: _133  and  _134
REMARK   61  A    between atoms: _133  and  _136
REMARK   62  A    between atoms: _136  and  _137
REMARK   63  A    between atoms: _140  and  _142
REMARK   64  A    between atoms: _142  and  _143
REMARK   65  A    between atoms: _142  and  _145
REMARK   66  A    between atoms: _148  and  _150
REMARK   67  A    between atoms: _150  and  _151
REMARK   68  A    between atoms: _150  and  _153
REMARK   69  A    between atoms: _153  and  _154
REMARK   70  A    between atoms: _157  and  _159
REMARK   71  A    between atoms: _159  and  _160
REMARK   72  A    between atoms: _159  and  _162
REMARK   73  A    between atoms: _162  and  _163
REMARK   74  A    between atoms: _166  and  _168
REMARK   75  A    between atoms: _168  and  _169
REMARK   76  A    between atoms: _171  and  _173
REMARK   77  A    between atoms: _173  and  _174
REMARK   78  A    between atoms: _173  and  _176
REMARK   79  A    between atoms: _176  and  _177
REMARK   80  A    between atoms: _180  and  _182
REMARK   81  A    between atoms: _182  and  _183
REMARK   82  A    between atoms: _185  and  _187
REMARK   83  A    between atoms: _187  and  _188
REMARK   84  A    between atoms: _187  and  _190
REMARK   85  A    between atoms: _190  and  _191
REMARK   86  A    between atoms: _191  and  _192
REMARK   87  A    between atoms: _194  and  _196
REMARK   88  A    between atoms: _196  and  _197
REMARK   89  A    between atoms: _196  and  _199
REMARK   90  A    between atoms: _199  and  _200
REMARK   91  A    between atoms: _203  and  _205
REMARK   92  A    between atoms: _205  and  _206
REMARK   93  A    between atoms: _205  and  _208
REMARK   94  A    between atoms: _208  and  _209
REMARK   95  A    between atoms: _212  and  _214
REMARK   96  A    between atoms: _214  and  _215
REMARK   97  A    between atoms: _214  and  _217
REMARK   98  A    between atoms: _217  and  _218
REMARK   99  A    between atoms: _221  and  _223
REMARK  100  A    between atoms: _223  and  _224
REMARK  101  A    between atoms: _223  and  _226
REMARK  102  A    between atoms: _226  and  _227
REMARK  103  A    between atoms: _230  and  _232
REMARK  104  A    between atoms: _232  and  _233
REMARK  105  A    between atoms: _232  and  _235
REMARK  106  A    between atoms: _235  and  _236
REMARK  107  A    between atoms: _241  and  _243
REMARK  108  A    between atoms: _243  and  _244
REMARK  109  A    between atoms: _243  and  _246
REMARK  110  A    between atoms: _246  and  _247
REMARK  111  A    between atoms: _250  and  _252
REMARK  112  A    between atoms: _252  and  _253
REMARK  113  A    between atoms: _255  and  _257
REMARK  114  A    between atoms: _257  and  _258
REMARK  115  A    between atoms: _257  and  _260
REMARK  116  A    between atoms: _260  and  _261
REMARK  117  A    between atoms: _264  and  _266
REMARK  118  A    between atoms: _266  and  _267
REMARK  119  A    between atoms: _270  and  _272
REMARK  120  A    between atoms: _272  and  _273
REMARK  121  A    between atoms: _275  and  _277
REMARK  122  A    between atoms: _277  and  _278
REMARK  123  A    between atoms: _277  and  _280
REMARK  124  A    between atoms: _283  and  _285
REMARK  125  A    between atoms: _285  and  _286
REMARK  126  A    between atoms: _288  and  _290
REMARK  127  A    between atoms: _290  and  _291
REMARK  128  A    between atoms: _290  and  _293
REMARK  129  A    between atoms: _293  and  _294
REMARK  130  A    between atoms: _300  and  _302
REMARK  131  A    between atoms: _302  and  _303
REMARK  132  A    between atoms: _302  and  _305
REMARK  133  A    between atoms: _305  and  _306
REMARK  134  A    between atoms: _311  and  _312
REMARK  135  A    between atoms: _314  and  _316
REMARK  136  A    between atoms: _316  and  _317
REMARK  137  A    between atoms: _316  and  _319
REMARK  138  A    between atoms: _319  and  _320
REMARK  139  A    between atoms: _325  and  _326
REMARK  140  A    between atoms: _328  and  _330
REMARK  141  A    between atoms: _330  and  _331
REMARK  142  A    between atoms: _330  and  _333
REMARK  143  A    between atoms: _336  and  _338
REMARK  144  A    between atoms: _338  and  _339
REMARK  145  A    between atoms: _338  and  _341
REMARK  146  A    between atoms: _341  and  _342
REMARK  147  A    between atoms: _345  and  _347
REMARK  148  A    between atoms: _347  and  _348
REMARK  149  A    between atoms: _347  and  _350
REMARK  150  A    between atoms: _353  and  _355
REMARK  151  A    between atoms: _355  and  _356
REMARK  152  A    between atoms: _355  and  _358
REMARK  153  A    between atoms: _358  and  _359
REMARK  154  A    between atoms: _362  and  _364
REMARK  155  A    between atoms: _364  and  _365
REMARK  156  A    between atoms: _364  and  _367
REMARK  157  A    between atoms: _367  and  _368
REMARK  158  A    between atoms: _371  and  _373
REMARK  159  A    between atoms: _373  and  _374
REMARK  160  A    between atoms: _373  and  _376
REMARK  161  A    between atoms: _376  and  _377
REMARK  162  A    between atoms: _377  and  _378
REMARK  163  A    between atoms: _378  and  _379
REMARK  164  A    between atoms: _379  and  _380
REMARK  165  A    between atoms: _384  and  _386
REMARK  166  A    between atoms: _386  and  _387
REMARK  167  A    between atoms: _386  and  _389
REMARK  168  A    between atoms: _389  and  _390
REMARK  169  A    between atoms: _395  and  _397
REMARK  170  A    between atoms: _397  and  _398
REMARK  171  A    between atoms: _397  and  _400
REMARK  172  A    between atoms: _400  and  _401
REMARK  173  A    between atoms: _411  and  _413
REMARK  174  A    between atoms: _413  and  _414
REMARK  175  A    between atoms: _413  and  _416
REMARK  176  A    between atoms: _416  and  _417
REMARK  177  A    between atoms: _417  and  _418
REMARK  178  A    between atoms: _421  and  _423
REMARK  179  A    between atoms: _423  and  _424
REMARK  180  A    between atoms: _423  and  _426
REMARK  181  A    between atoms: _426  and  _427
REMARK  182  A    between atoms: _429  and  _431
REMARK  183  A    between atoms: _431  and  _432
REMARK  184  A    between atoms: _431  and  _434
REMARK  185  A    between atoms: _434  and  _435
REMARK  186  A    between atoms: _441  and  _443
REMARK  187  A    between atoms: _443  and  _444
REMARK  188  A    between atoms: _443  and  _446
REMARK  189  A    between atoms: _446  and  _447
REMARK  190  A    between atoms: _450  and  _452
REMARK  191  A    between atoms: _452  and  _453
REMARK  192  A    between atoms: _452  and  _455
REMARK  193  A    between atoms: _458  and  _460
REMARK  194  A    between atoms: _460  and  _461
REMARK  195  A    between atoms: _463  and  _465
REMARK  196  A    between atoms: _465  and  _466
REMARK  197  A    between atoms: _465  and  _468
REMARK  198  A    between atoms: _468  and  _469
REMARK  199  A    between atoms: _472  and  _474
REMARK  200  A    between atoms: _474  and  _475
REMARK  201  A    between atoms: _474  and  _477
REMARK  202  A    between atoms: _477  and  _478
REMARK  203  A    between atoms: _478  and  _479
REMARK  204  A    between atoms: _479  and  _480
REMARK  205  A    between atoms: _480  and  _481
REMARK  206  A    between atoms: _485  and  _487
REMARK  207  A    between atoms: _487  and  _488
REMARK  208  A    between atoms: _487  and  _490
REMARK                            x       y       z     vdW  Elec       q    Type
REMARK                         _______ _______ _______ _____ _____    ______ ____
ROOT
ATOM      1  O   HOH     1      62.411   6.793  31.114  0.00  0.00    +0.000 OA
ENDROOT
TORSDOF 0
REMARK  Name = ../refined-set-2016/3b25/3b25_pocket.pdb
REMARK  208 active torsions:
REMARK  status: ('A' for Active; 'I' for Inactive)
REMARK    1  A    between atoms: _1  and  _3
REMARK    2  A    between atoms: _3  and  _4
REMARK    3  A    between atoms: _3  and  _6
REMARK    4  A    between atoms: _6  and  _7
REMARK    5  A    between atoms: _13  and  _15
REMARK    6  A    between atoms: _15  and  _16
REMARK    7  A    between atoms: _15  and  _18
REMARK    8  A    between atoms: _18  and  _19
REMARK    9  A    between atoms: _19  and  _20
REMARK   10  A    between atoms: _23  and  _25
REMARK   11  A    between atoms: _25  and  _26
REMARK   12  A    between atoms: _25  and  _28
REMARK   13  A    between atoms: _28  and  _29
REMARK   14  A    between atoms: _32  and  _34
REMARK   15  A    between atoms: _34  and  _35
REMARK   16  A    between atoms: _34  and  _37
REMARK   17  A    between atoms: _37  and  _38
REMARK   18  A    between atoms: _41  and  _43
REMARK   19  A    between atoms: _43  and  _44
REMARK   20  A    between atoms: _43  and  _46
REMARK   21  A    between atoms: _46  and  _47
REMARK   22  A    between atoms: _49  and  _51
REMARK   23  A    between atoms: _51  and  _52
REMARK   24  A    between atoms: _51  and  _54
REMARK   25  A    between atoms: _54  and  _55
REMARK   26  A    between atoms: _60  and  _62
REMARK   27  A    between atoms: _62  and  _63
REMARK   28  A    between atoms: _62  and  _65
REMARK   29  A    between atoms: _65  and  _66
REMARK   30  A    between atoms: _68  and  _70
REMARK   31  A    between atoms: _70  and  _71
REMARK   32  A    between atoms: _70  and  _73
REMARK   33  A    between atoms: _73  and  _74
REMARK   34  A    between atoms: _76  and  _78
REMARK   35  A    between atoms: _78  and  _79
REMARK   36  A    between atoms: _78  and  _81
REMARK   37  A    between atoms: _81  and  _82
REMARK   38  A    between atoms: _85  and  _87
REMARK   39  A    between atoms: _87  and  _88
REMARK   40  A    between atoms: _91  and  _93
REMARK   41  A    between atoms: _93  and  _94
REMARK   42  A    between atoms: _93  and  _96
REMARK   43  A    between atoms: _96  and  _97
REMARK   44  A    between atoms: _100  and  _102
REMARK   45  A    between atoms: _102  and  _103
REMARK   46  A    between atoms: _102  and  _105
REMARK   47  A    between atoms: _105  and  _106
REMARK   48  A    between atoms: _106  and  _107
REMARK   49  A    between atoms: _107  and  _108
REMARK   50  A    between atoms: _108  and  _109
REMARK   51  A    between atoms: _113  and  _115
REMARK   52  A    between atoms: _115  and  _116
REMARK   53  A    between atoms: _115  and  _118
REMARK   54  A    between atoms: _118  and  _119
REMARK   55  A    between atoms: _122  and  _124
REMARK   56  A    between atoms: _124  and  _125
REMARK   57  A    between atoms: _124  and  _127
REMARK   58  A    between atoms: _127  and  _128
REMARK   59  A    between atoms: _131  and  _133
REMARK   60  A    between atoms: _133  and  _134
REMARK   61  A    between atoms: _133  and  _136
REMARK   62  A    between atoms: _136  and  _137
REMARK   63  A    between atoms: _140  and  _142
REMARK   64  A    between atoms: _142  and  _143
REMARK   65  A    between atoms: _142  and  _145
REMARK   66  A    between atoms: _148  and  _150
REMARK   67  A    between atoms: _150  and  _151
REMARK   68  A    between atoms: _150  and  _153
REMARK   69  A    between atoms: _153  and  _154
REMARK   70  A    between atoms: _157  and  _159
REMARK   71  A    between atoms: _159  and  _160
REMARK   72  A    between atoms: _159  and  _162
REMARK   73  A    between atoms: _162  and  _163
REMARK   74  A    between atoms: _166  and  _168
REMARK   75  A    between atoms: _168  and  _169
REMARK   76  A    between atoms: _171  and  _173
REMARK   77  A    between atoms: _173  and  _174
REMARK   78  A    between atoms: _173  and  _176
REMARK   79  A    between atoms: _176  and  _177
REMARK   80  A    between atoms: _180  and  _182
REMARK   81  A    between atoms: _182  and  _183
REMARK   82  A    between atoms: _185  and  _187
REMARK   83  A    between atoms: _187  and  _188
REMARK   84  A    between atoms: _187  and  _190
REMARK   85  A    between atoms: _190  and  _191
REMARK   86  A    between atoms: _191  and  _192
REMARK   87  A    between atoms: _194  and  _196
REMARK   88  A    between atoms: _196  and  _197
REMARK   89  A    between atoms: _196  and  _199
REMARK   90  A    between atoms: _199  and  _200
REMARK   91  A    between atoms: _203  and  _205
REMARK   92  A    between atoms: _205  and  _206
REMARK   93  A    between atoms: _205  and  _208
REMARK   94  A    between atoms: _208  and  _209
REMARK   95  A    between atoms: _212  and  _214
REMARK   96  A    between atoms: _214  and  _215
REMARK   97  A    between atoms: _214  and  _217
REMARK   98  A    between atoms: _217  and  _218
REMARK   99  A    between atoms: _221  and  _223
REMARK  100  A    between atoms: _223  and  _224
REMARK  101  A    between atoms: _223  and  _226
REMARK  102  A    between atoms: _226  and  _227
REMARK  103  A    between atoms: _230  and  _232
REMARK  104  A    between atoms: _232  and  _233
REMARK  105  A    between atoms: _232  and  _235
REMARK  106  A    between atoms: _235  and  _236
REMARK  107  A    between atoms: _241  and  _243
REMARK  108  A    between atoms: _243  and  _244
REMARK  109  A    between atoms: _243  and  _246
REMARK  110  A    between atoms: _246  and  _247
REMARK  111  A    between atoms: _250  and  _252
REMARK  112  A    between atoms: _252  and  _253
REMARK  113  A    between atoms: _255  and  _257
REMARK  114  A    between atoms: _257  and  _258
REMARK  115  A    between atoms: _257  and  _260
REMARK  116  A    between atoms: _260  and  _261
REMARK  117  A    between atoms: _264  and  _266
REMARK  118  A    between atoms: _266  and  _267
REMARK  119  A    between atoms: _270  and  _272
REMARK  120  A    between atoms: _272  and  _273
REMARK  121  A    between atoms: _275  and  _277
REMARK  122  A    between atoms: _277  and  _278
REMARK  123  A    between atoms: _277  and  _280
REMARK  124  A    between atoms: _283  and  _285
REMARK  125  A    between atoms: _285  and  _286
REMARK  126  A    between atoms: _288  and  _290
REMARK  127  A    between atoms: _290  and  _291
REMARK  128  A    between atoms: _290  and  _293
REMARK  129  A    between atoms: _293  and  _294
REMARK  130  A    between atoms: _300  and  _302
REMARK  131  A    between atoms: _302  and  _303
REMARK  132  A    between atoms: _302  and  _305
REMARK  133  A    between atoms: _305  and  _306
REMARK  134  A    between atoms: _311  and  _312
REMARK  135  A    between atoms: _314  and  _316
REMARK  136  A    between atoms: _316  and  _317
REMARK  137  A    between atoms: _316  and  _319
REMARK  138  A    between atoms: _319  and  _320
REMARK  139  A    between atoms: _325  and  _326
REMARK  140  A    between atoms: _328  and  _330
REMARK  141  A    between atoms: _330  and  _331
REMARK  142  A    between atoms: _330  and  _333
REMARK  143  A    between atoms: _336  and  _338
REMARK  144  A    between atoms: _338  and  _339
REMARK  145  A    between atoms: _338  and  _341
REMARK  146  A    between atoms: _341  and  _342
REMARK  147  A    between atoms: _345  and  _347
REMARK  148  A    between atoms: _347  and  _348
REMARK  149  A    between atoms: _347  and  _350
REMARK  150  A    between atoms: _353  and  _355
REMARK  151  A    between atoms: _355  and  _356
REMARK  152  A    between atoms: _355  and  _358
REMARK  153  A    between atoms: _358  and  _359
REMARK  154  A    between atoms: _362  and  _364
REMARK  155  A    between atoms: _364  and  _365
REMARK  156  A    between atoms: _364  and  _367
REMARK  157  A    between atoms: _367  and  _368
REMARK  158  A    between atoms: _371  and  _373
REMARK  159  A    between atoms: _373  and  _374
REMARK  160  A    between atoms: _373  and  _376
REMARK  161  A    between atoms: _376  and  _377
REMARK  162  A    between atoms: _377  and  _378
REMARK  163  A    between atoms: _378  and  _379
REMARK  164  A    between atoms: _379  and  _380
REMARK  165  A    between atoms: _384  and  _386
REMARK  166  A    between atoms: _386  and  _387
REMARK  167  A    between atoms: _386  and  _389
REMARK  168  A    between atoms: _389  and  _390
REMARK  169  A    between atoms: _395  and  _397
REMARK  170  A    between atoms: _397  and  _398
REMARK  171  A    between atoms: _397  and  _400
REMARK  172  A    between atoms: _400  and  _401
REMARK  173  A    between atoms: _411  and  _413
REMARK  174  A    between atoms: _413  and  _414
REMARK  175  A    between atoms: _413  and  _416
REMARK  176  A    between atoms: _416  and  _417
REMARK  177  A    between atoms: _417  and  _418
REMARK  178  A    between atoms: _421  and  _423
REMARK  179  A    between atoms: _423  and  _424
REMARK  180  A    between atoms: _423  and  _426
REMARK  181  A    between atoms: _426  and  _427
REMARK  182  A    between atoms: _429  and  _431
REMARK  183  A    between atoms: _431  and  _432
REMARK  184  A    between atoms: _431  and  _434
REMARK  185  A    between atoms: _434  and  _435
REMARK  186  A    between atoms: _441  and  _443
REMARK  187  A    between atoms: _443  and  _444
REMARK  188  A    between atoms: _443  and  _446
REMARK  189  A    between atoms: _446  and  _447
REMARK  190  A    between atoms: _450  and  _452
REMARK  191  A    between atoms: _452  and  _453
REMARK  192  A    between atoms: _452  and  _455
REMARK  193  A    between atoms: _458  and  _460
REMARK  194  A    between atoms: _460  and  _461
REMARK  195  A    between atoms: _463  and  _465
REMARK  196  A    between atoms: _465  and  _466
REMARK  197  A    between atoms: _465  and  _468
REMARK  198  A    between atoms: _468  and  _469
REMARK  199  A    between atoms: _472  and  _474
REMARK  200  A    between atoms: _474  and  _475
REMARK  201  A    between atoms: _474  and  _477
REMARK  202  A    between atoms: _477  and  _478
REMARK  203  A    between atoms: _478  and  _479
REMARK  204  A    between atoms: _479  and  _480
REMARK  205  A    between atoms: _480  and  _481
REMARK  206  A    between atoms: _485  and  _487
REMARK  207  A    between atoms: _487  and  _488
REMARK  208  A    between atoms: _487  and  _490
REMARK                            x       y       z     vdW  Elec       q    Type
REMARK                         _______ _______ _______ _____ _____    ______ ____
ROOT
ATOM      1  O   HOH     1      57.327  16.132  21.878  0.00  0.00    +0.000 OA
ENDROOT
TORSDOF 0
REMARK  Name = ../refined-set-2016/3b25/3b25_pocket.pdb
REMARK  208 active torsions:
REMARK  status: ('A' for Active; 'I' for Inactive)
REMARK    1  A    between atoms: _1  and  _3
REMARK    2  A    between atoms: _3  and  _4
REMARK    3  A    between atoms: _3  and  _6
REMARK    4  A    between atoms: _6  and  _7
REMARK    5  A    between atoms: _13  and  _15
REMARK    6  A    between atoms: _15  and  _16
REMARK    7  A    between atoms: _15  and  _18
REMARK    8  A    between atoms: _18  and  _19
REMARK    9  A    between atoms: _19  and  _20
REMARK   10  A    between atoms: _23  and  _25
REMARK   11  A    between atoms: _25  and  _26
REMARK   12  A    between atoms: _25  and  _28
REMARK   13  A    between atoms: _28  and  _29
REMARK   14  A    between atoms: _32  and  _34
REMARK   15  A    between atoms: _34  and  _35
REMARK   16  A    between atoms: _34  and  _37
REMARK   17  A    between atoms: _37  and  _38
REMARK   18  A    between atoms: _41  and  _43
REMARK   19  A    between atoms: _43  and  _44
REMARK   20  A    between atoms: _43  and  _46
REMARK   21  A    between atoms: _46  and  _47
REMARK   22  A    between atoms: _49  and  _51
REMARK   23  A    between atoms: _51  and  _52
REMARK   24  A    between atoms: _51  and  _54
REMARK   25  A    between atoms: _54  and  _55
REMARK   26  A    between atoms: _60  and  _62
REMARK   27  A    between atoms: _62  and  _63
REMARK   28  A    between atoms: _62  and  _65
REMARK   29  A    between atoms: _65  and  _66
REMARK   30  A    between atoms: _68  and  _70
REMARK   31  A    between atoms: _70  and  _71
REMARK   32  A    between atoms: _70  and  _73
REMARK   33  A    between atoms: _73  and  _74
REMARK   34  A    between atoms: _76  and  _78
REMARK   35  A    between atoms: _78  and  _79
REMARK   36  A    between atoms: _78  and  _81
REMARK   37  A    between atoms: _81  and  _82
REMARK   38  A    between atoms: _85  and  _87
REMARK   39  A    between atoms: _87  and  _88
REMARK   40  A    between atoms: _91  and  _93
REMARK   41  A    between atoms: _93  and  _94
REMARK   42  A    between atoms: _93  and  _96
REMARK   43  A    between atoms: _96  and  _97
REMARK   44  A    between atoms: _100  and  _102
REMARK   45  A    between atoms: _102  and  _103
REMARK   46  A    between atoms: _102  and  _105
REMARK   47  A    between atoms: _105  and  _106
REMARK   48  A    between atoms: _106  and  _107
REMARK   49  A    between atoms: _107  and  _108
REMARK   50  A    between atoms: _108  and  _109
REMARK   51  A    between atoms: _113  and  _115
REMARK   52  A    between atoms: _115  and  _116
REMARK   53  A    between atoms: _115  and  _118
REMARK   54  A    between atoms: _118  and  _119
REMARK   55  A    between atoms: _122  and  _124
REMARK   56  A    between atoms: _124  and  _125
REMARK   57  A    between atoms: _124  and  _127
REMARK   58  A    between atoms: _127  and  _128
REMARK   59  A    between atoms: _131  and  _133
REMARK   60  A    between atoms: _133  and  _134
REMARK   61  A    between atoms: _133  and  _136
REMARK   62  A    between atoms: _136  and  _137
REMARK   63  A    between atoms: _140  and  _142
REMARK   64  A    between atoms: _142  and  _143
REMARK   65  A    between atoms: _142  and  _145
REMARK   66  A    between atoms: _148  and  _150
REMARK   67  A    between atoms: _150  and  _151
REMARK   68  A    between atoms: _150  and  _153
REMARK   69  A    between atoms: _153  and  _154
REMARK   70  A    between atoms: _157  and  _159
REMARK   71  A    between atoms: _159  and  _160
REMARK   72  A    between atoms: _159  and  _162
REMARK   73  A    between atoms: _162  and  _163
REMARK   74  A    between atoms: _166  and  _168
REMARK   75  A    between atoms: _168  and  _169
REMARK   76  A    between atoms: _171  and  _173
REMARK   77  A    between atoms: _173  and  _174
REMARK   78  A    between atoms: _173  and  _176
REMARK   79  A    between atoms: _176  and  _177
REMARK   80  A    between atoms: _180  and  _182
REMARK   81  A    between atoms: _182  and  _183
REMARK   82  A    between atoms: _185  and  _187
REMARK   83  A    between atoms: _187  and  _188
REMARK   84  A    between atoms: _187  and  _190
REMARK   85  A    between atoms: _190  and  _191
REMARK   86  A    between atoms: _191  and  _192
REMARK   87  A    between atoms: _194  and  _196
REMARK   88  A    between atoms: _196  and  _197
REMARK   89  A    between atoms: _196  and  _199
REMARK   90  A    between atoms: _199  and  _200
REMARK   91  A    between atoms: _203  and  _205
REMARK   92  A    between atoms: _205  and  _206
REMARK   93  A    between atoms: _205  and  _208
REMARK   94  A    between atoms: _208  and  _209
REMARK   95  A    between atoms: _212  and  _214
REMARK   96  A    between atoms: _214  and  _215
REMARK   97  A    between atoms: _214  and  _217
REMARK   98  A    between atoms: _217  and  _218
REMARK   99  A    between atoms: _221  and  _223
REMARK  100  A    between atoms: _223  and  _224
REMARK  101  A    between atoms: _223  and  _226
REMARK  102  A    between atoms: _226  and  _227
REMARK  103  A    between atoms: _230  and  _232
REMARK  104  A    between atoms: _232  and  _233
REMARK  105  A    between atoms: _232  and  _235
REMARK  106  A    between atoms: _235  and  _236
REMARK  107  A    between atoms: _241  and  _243
REMARK  108  A    between atoms: _243  and  _244
REMARK  109  A    between atoms: _243  and  _246
REMARK  110  A    between atoms: _246  and  _247
REMARK  111  A    between atoms: _250  and  _252
REMARK  112  A    between atoms: _252  and  _253
REMARK  113  A    between atoms: _255  and  _257
REMARK  114  A    between atoms: _257  and  _258
REMARK  115  A    between atoms: _257  and  _260
REMARK  116  A    between atoms: _260  and  _261
REMARK  117  A    between atoms: _264  and  _266
REMARK  118  A    between atoms: _266  and  _267
REMARK  119  A    between atoms: _270  and  _272
REMARK  120  A    between atoms: _272  and  _273
REMARK  121  A    between atoms: _275  and  _277
REMARK  122  A    between atoms: _277  and  _278
REMARK  123  A    between atoms: _277  and  _280
REMARK  124  A    between atoms: _283  and  _285
REMARK  125  A    between atoms: _285  and  _286
REMARK  126  A    between atoms: _288  and  _290
REMARK  127  A    between atoms: _290  and  _291
REMARK  128  A    between atoms: _290  and  _293
REMARK  129  A    between atoms: _293  and  _294
REMARK  130  A    between atoms: _300  and  _302
REMARK  131  A    between atoms: _302  and  _303
REMARK  132  A    between atoms: _302  and  _305
REMARK  133  A    between atoms: _305  and  _306
REMARK  134  A    between atoms: _311  and  _312
REMARK  135  A    between atoms: _314  and  _316
REMARK  136  A    between atoms: _316  and  _317
REMARK  137  A    between atoms: _316  and  _319
REMARK  138  A    between atoms: _319  and  _320
REMARK  139  A    between atoms: _325  and  _326
REMARK  140  A    between atoms: _328  and  _330
REMARK  141  A    between atoms: _330  and  _331
REMARK  142  A    between atoms: _330  and  _333
REMARK  143  A    between atoms: _336  and  _338
REMARK  144  A    between atoms: _338  and  _339
REMARK  145  A    between atoms: _338  and  _341
REMARK  146  A    between atoms: _341  and  _342
REMARK  147  A    between atoms: _345  and  _347
REMARK  148  A    between atoms: _347  and  _348
REMARK  149  A    between atoms: _347  and  _350
REMARK  150  A    between atoms: _353  and  _355
REMARK  151  A    between atoms: _355  and  _356
REMARK  152  A    between atoms: _355  and  _358
REMARK  153  A    between atoms: _358  and  _359
REMARK  154  A    between atoms: _362  and  _364
REMARK  155  A    between atoms: _364  and  _365
REMARK  156  A    between atoms: _364  and  _367
REMARK  157  A    between atoms: _367  and  _368
REMARK  158  A    between atoms: _371  and  _373
REMARK  159  A    between atoms: _373  and  _374
REMARK  160  A    between atoms: _373  and  _376
REMARK  161  A    between atoms: _376  and  _377
REMARK  162  A    between atoms: _377  and  _378
REMARK  163  A    between atoms: _378  and  _379
REMARK  164  A    between atoms: _379  and  _380
REMARK  165  A    between atoms: _384  and  _386
REMARK  166  A    between atoms: _386  and  _387
REMARK  167  A    between atoms: _386  and  _389
REMARK  168  A    between atoms: _389  and  _390
REMARK  169  A    between atoms: _395  and  _397
REMARK  170  A    between atoms: _397  and  _398
REMARK  171  A    between atoms: _397  and  _400
REMARK  172  A    between atoms: _400  and  _401
REMARK  173  A    between atoms: _411  and  _413
REMARK  174  A    between atoms: _413  and  _414
REMARK  175  A    between atoms: _413  and  _416
REMARK  176  A    between atoms: _416  and  _417
REMARK  177  A    between atoms: _417  and  _418
REMARK  178  A    between atoms: _421  and  _423
REMARK  179  A    between atoms: _423  and  _424
REMARK  180  A    between atoms: _423  and  _426
REMARK  181  A    between atoms: _426  and  _427
REMARK  182  A    between atoms: _429  and  _431
REMARK  183  A    between atoms: _431  and  _432
REMARK  184  A    between atoms: _431  and  _434
REMARK  185  A    between atoms: _434  and  _435
REMARK  186  A    between atoms: _441  and  _443
REMARK  187  A    between atoms: _443  and  _444
REMARK  188  A    between atoms: _443  and  _446
REMARK  189  A    between atoms: _446  and  _447
REMARK  190  A    between atoms: _450  and  _452
REMARK  191  A    between atoms: _452  and  _453
REMARK  192  A    between atoms: _452  and  _455
REMARK  193  A    between atoms: _458  and  _460
REMARK  194  A    between atoms: _460  and  _461
REMARK  195  A    between atoms: _463  and  _465
REMARK  196  A    between atoms: _465  and  _466
REMARK  197  A    between atoms: _465  and  _468
REMARK  198  A    between atoms: _468  and  _469
REMARK  199  A    between atoms: _472  and  _474
REMARK  200  A    between atoms: _474  and  _475
REMARK  201  A    between atoms: _474  and  _477
REMARK  202  A    between atoms: _477  and  _478
REMARK  203  A    between atoms: _478  and  _479
REMARK  204  A    between atoms: _479  and  _480
REMARK  205  A    between atoms: _480  and  _481
REMARK  206  A    between atoms: _485  and  _487
REMARK  207  A    between atoms: _487  and  _488
REMARK  208  A    between atoms: _487  and  _490
REMARK                            x       y       z     vdW  Elec       q    Type
REMARK                         _______ _______ _______ _____ _____    ______ ____
ROOT
ATOM      1  O   HOH     1      65.697   8.165  18.041  0.00  0.00    +0.000 OA
ENDROOT
TORSDOF 0
REMARK  Name = ../refined-set-2016/3b25/3b25_pocket.pdb
REMARK  208 active torsions:
REMARK  status: ('A' for Active; 'I' for Inactive)
REMARK    1  A    between atoms: _1  and  _3
REMARK    2  A    between atoms: _3  and  _4
REMARK    3  A    between atoms: _3  and  _6
REMARK    4  A    between atoms: _6  and  _7
REMARK    5  A    between atoms: _13  and  _15
REMARK    6  A    between atoms: _15  and  _16
REMARK    7  A    between atoms: _15  and  _18
REMARK    8  A    between atoms: _18  and  _19
REMARK    9  A    between atoms: _19  and  _20
REMARK   10  A    between atoms: _23  and  _25
REMARK   11  A    between atoms: _25  and  _26
REMARK   12  A    between atoms: _25  and  _28
REMARK   13  A    between atoms: _28  and  _29
REMARK   14  A    between atoms: _32  and  _34
REMARK   15  A    between atoms: _34  and  _35
REMARK   16  A    between atoms: _34  and  _37
REMARK   17  A    between atoms: _37  and  _38
REMARK   18  A    between atoms: _41  and  _43
REMARK   19  A    between atoms: _43  and  _44
REMARK   20  A    between atoms: _43  and  _46
REMARK   21  A    between atoms: _46  and  _47
REMARK   22  A    between atoms: _49  and  _51
REMARK   23  A    between atoms: _51  and  _52
REMARK   24  A    between atoms: _51  and  _54
REMARK   25  A    between atoms: _54  and  _55
REMARK   26  A    between atoms: _60  and  _62
REMARK   27  A    between atoms: _62  and  _63
REMARK   28  A    between atoms: _62  and  _65
REMARK   29  A    between atoms: _65  and  _66
REMARK   30  A    between atoms: _68  and  _70
REMARK   31  A    between atoms: _70  and  _71
REMARK   32  A    between atoms: _70  and  _73
REMARK   33  A    between atoms: _73  and  _74
REMARK   34  A    between atoms: _76  and  _78
REMARK   35  A    between atoms: _78  and  _79
REMARK   36  A    between atoms: _78  and  _81
REMARK   37  A    between atoms: _81  and  _82
REMARK   38  A    between atoms: _85  and  _87
REMARK   39  A    between atoms: _87  and  _88
REMARK   40  A    between atoms: _91  and  _93
REMARK   41  A    between atoms: _93  and  _94
REMARK   42  A    between atoms: _93  and  _96
REMARK   43  A    between atoms: _96  and  _97
REMARK   44  A    between atoms: _100  and  _102
REMARK   45  A    between atoms: _102  and  _103
REMARK   46  A    between atoms: _102  and  _105
REMARK   47  A    between atoms: _105  and  _106
REMARK   48  A    between atoms: _106  and  _107
REMARK   49  A    between atoms: _107  and  _108
REMARK   50  A    between atoms: _108  and  _109
REMARK   51  A    between atoms: _113  and  _115
REMARK   52  A    between atoms: _115  and  _116
REMARK   53  A    between atoms: _115  and  _118
REMARK   54  A    between atoms: _118  and  _119
REMARK   55  A    between atoms: _122  and  _124
REMARK   56  A    between atoms: _124  and  _125
REMARK   57  A    between atoms: _124  and  _127
REMARK   58  A    between atoms: _127  and  _128
REMARK   59  A    between atoms: _131  and  _133
REMARK   60  A    between atoms: _133  and  _134
REMARK   61  A    between atoms: _133  and  _136
REMARK   62  A    between atoms: _136  and  _137
REMARK   63  A    between atoms: _140  and  _142
REMARK   64  A    between atoms: _142  and  _143
REMARK   65  A    between atoms: _142  and  _145
REMARK   66  A    between atoms: _148  and  _150
REMARK   67  A    between atoms: _150  and  _151
REMARK   68  A    between atoms: _150  and  _153
REMARK   69  A    between atoms: _153  and  _154
REMARK   70  A    between atoms: _157  and  _159
REMARK   71  A    between atoms: _159  and  _160
REMARK   72  A    between atoms: _159  and  _162
REMARK   73  A    between atoms: _162  and  _163
REMARK   74  A    between atoms: _166  and  _168
REMARK   75  A    between atoms: _168  and  _169
REMARK   76  A    between atoms: _171  and  _173
REMARK   77  A    between atoms: _173  and  _174
REMARK   78  A    between atoms: _173  and  _176
REMARK   79  A    between atoms: _176  and  _177
REMARK   80  A    between atoms: _180  and  _182
REMARK   81  A    between atoms: _182  and  _183
REMARK   82  A    between atoms: _185  and  _187
REMARK   83  A    between atoms: _187  and  _188
REMARK   84  A    between atoms: _187  and  _190
REMARK   85  A    between atoms: _190  and  _191
REMARK   86  A    between atoms: _191  and  _192
REMARK   87  A    between atoms: _194  and  _196
REMARK   88  A    between atoms: _196  and  _197
REMARK   89  A    between atoms: _196  and  _199
REMARK   90  A    between atoms: _199  and  _200
REMARK   91  A    between atoms: _203  and  _205
REMARK   92  A    between atoms: _205  and  _206
REMARK   93  A    between atoms: _205  and  _208
REMARK   94  A    between atoms: _208  and  _209
REMARK   95  A    between atoms: _212  and  _214
REMARK   96  A    between atoms: _214  and  _215
REMARK   97  A    between atoms: _214  and  _217
REMARK   98  A    between atoms: _217  and  _218
REMARK   99  A    between atoms: _221  and  _223
REMARK  100  A    between atoms: _223  and  _224
REMARK  101  A    between atoms: _223  and  _226
REMARK  102  A    between atoms: _226  and  _227
REMARK  103  A    between atoms: _230  and  _232
REMARK  104  A    between atoms: _232  and  _233
REMARK  105  A    between atoms: _232  and  _235
REMARK  106  A    between atoms: _235  and  _236
REMARK  107  A    between atoms: _241  and  _243
REMARK  108  A    between atoms: _243  and  _244
REMARK  109  A    between atoms: _243  and  _246
REMARK  110  A    between atoms: _246  and  _247
REMARK  111  A    between atoms: _250  and  _252
REMARK  112  A    between atoms: _252  and  _253
REMARK  113  A    between atoms: _255  and  _257
REMARK  114  A    between atoms: _257  and  _258
REMARK  115  A    between atoms: _257  and  _260
REMARK  116  A    between atoms: _260  and  _261
REMARK  117  A    between atoms: _264  and  _266
REMARK  118  A    between atoms: _266  and  _267
REMARK  119  A    between atoms: _270  and  _272
REMARK  120  A    between atoms: _272  and  _273
REMARK  121  A    between atoms: _275  and  _277
REMARK  122  A    between atoms: _277  and  _278
REMARK  123  A    between atoms: _277  and  _280
REMARK  124  A    between atoms: _283  and  _285
REMARK  125  A    between atoms: _285  and  _286
REMARK  126  A    between atoms: _288  and  _290
REMARK  127  A    between atoms: _290  and  _291
REMARK  128  A    between atoms: _290  and  _293
REMARK  129  A    between atoms: _293  and  _294
REMARK  130  A    between atoms: _300  and  _302
REMARK  131  A    between atoms: _302  and  _303
REMARK  132  A    between atoms: _302  and  _305
REMARK  133  A    between atoms: _305  and  _306
REMARK  134  A    between atoms: _311  and  _312
REMARK  135  A    between atoms: _314  and  _316
REMARK  136  A    between atoms: _316  and  _317
REMARK  137  A    between atoms: _316  and  _319
REMARK  138  A    between atoms: _319  and  _320
REMARK  139  A    between atoms: _325  and  _326
REMARK  140  A    between atoms: _328  and  _330
REMARK  141  A    between atoms: _330  and  _331
REMARK  142  A    between atoms: _330  and  _333
REMARK  143  A    between atoms: _336  and  _338
REMARK  144  A    between atoms: _338  and  _339
REMARK  145  A    between atoms: _338  and  _341
REMARK  146  A    between atoms: _341  and  _342
REMARK  147  A    between atoms: _345  and  _347
REMARK  148  A    between atoms: _347  and  _348
REMARK  149  A    between atoms: _347  and  _350
REMARK  150  A    between atoms: _353  and  _355
REMARK  151  A    between atoms: _355  and  _356
REMARK  152  A    between atoms: _355  and  _358
REMARK  153  A    between atoms: _358  and  _359
REMARK  154  A    between atoms: _362  and  _364
REMARK  155  A    between atoms: _364  and  _365
REMARK  156  A    between atoms: _364  and  _367
REMARK  157  A    between atoms: _367  and  _368
REMARK  158  A    between atoms: _371  and  _373
REMARK  159  A    between atoms: _373  and  _374
REMARK  160  A    between atoms: _373  and  _376
REMARK  161  A    between atoms: _376  and  _377
REMARK  162  A    between atoms: _377  and  _378
REMARK  163  A    between atoms: _378  and  _379
REMARK  164  A    between atoms: _379  and  _380
REMARK  165  A    between atoms: _384  and  _386
REMARK  166  A    between atoms: _386  and  _387
REMARK  167  A    between atoms: _386  and  _389
REMARK  168  A    between atoms: _389  and  _390
REMARK  169  A    between atoms: _395  and  _397
REMARK  170  A    between atoms: _397  and  _398
REMARK  171  A    between atoms: _397  and  _400
REMARK  172  A    between atoms: _400  and  _401
REMARK  173  A    between atoms: _411  and  _413
REMARK  174  A    between atoms: _413  and  _414
REMARK  175  A    between atoms: _413  and  _416
REMARK  176  A    between atoms: _416  and  _417
REMARK  177  A    between atoms: _417  and  _418
REMARK  178  A    between atoms: _421  and  _423
REMARK  179  A    between atoms: _423  and  _424
REMARK  180  A    between atoms: _423  and  _426
REMARK  181  A    between atoms: _426  and  _427
REMARK  182  A    between atoms: _429  and  _431
REMARK  183  A    between atoms: _431  and  _432
REMARK  184  A    between atoms: _431  and  _434
REMARK  185  A    between atoms: _434  and  _435
REMARK  186  A    between atoms: _441  and  _443
REMARK  187  A    between atoms: _443  and  _444
REMARK  188  A    between atoms: _443  and  _446
REMARK  189  A    between atoms: _446  and  _447
REMARK  190  A    between atoms: _450  and  _452
REMARK  191  A    between atoms: _452  and  _453
REMARK  192  A    between atoms: _452  and  _455
REMARK  193  A    between atoms: _458  and  _460
REMARK  194  A    between atoms: _460  and  _461
REMARK  195  A    between atoms: _463  and  _465
REMARK  196  A    between atoms: _465  and  _466
REMARK  197  A    between atoms: _465  and  _468
REMARK  198  A    between atoms: _468  and  _469
REMARK  199  A    between atoms: _472  and  _474
REMARK  200  A    between atoms: _474  and  _475
REMARK  201  A    between atoms: _474  and  _477
REMARK  202  A    between atoms: _477  and  _478
REMARK  203  A    between atoms: _478  and  _479
REMARK  204  A    between atoms: _479  and  _480
REMARK  205  A    between atoms: _480  and  _481
REMARK  206  A    between atoms: _485  and  _487
REMARK  207  A    between atoms: _487  and  _488
REMARK  208  A    between atoms: _487  and  _490
REMARK                            x       y       z     vdW  Elec       q    Type
REMARK                         _______ _______ _______ _____ _____    ______ ____
ROOT
ATOM      1  O   HOH     1      55.837  14.695  24.240  0.00  0.00    +0.000 OA
ENDROOT
TORSDOF 0
REMARK  Name = ../refined-set-2016/3b25/3b25_pocket.pdb
REMARK  208 active torsions:
REMARK  status: ('A' for Active; 'I' for Inactive)
REMARK    1  A    between atoms: _1  and  _3
REMARK    2  A    between atoms: _3  and  _4
REMARK    3  A    between atoms: _3  and  _6
REMARK    4  A    between atoms: _6  and  _7
REMARK    5  A    between atoms: _13  and  _15
REMARK    6  A    between atoms: _15  and  _16
REMARK    7  A    between atoms: _15  and  _18
REMARK    8  A    between atoms: _18  and  _19
REMARK    9  A    between atoms: _19  and  _20
REMARK   10  A    between atoms: _23  and  _25
REMARK   11  A    between atoms: _25  and  _26
REMARK   12  A    between atoms: _25  and  _28
REMARK   13  A    between atoms: _28  and  _29
REMARK   14  A    between atoms: _32  and  _34
REMARK   15  A    between atoms: _34  and  _35
REMARK   16  A    between atoms: _34  and  _37
REMARK   17  A    between atoms: _37  and  _38
REMARK   18  A    between atoms: _41  and  _43
REMARK   19  A    between atoms: _43  and  _44
REMARK   20  A    between atoms: _43  and  _46
REMARK   21  A    between atoms: _46  and  _47
REMARK   22  A    between atoms: _49  and  _51
REMARK   23  A    between atoms: _51  and  _52
REMARK   24  A    between atoms: _51  and  _54
REMARK   25  A    between atoms: _54  and  _55
REMARK   26  A    between atoms: _60  and  _62
REMARK   27  A    between atoms: _62  and  _63
REMARK   28  A    between atoms: _62  and  _65
REMARK   29  A    between atoms: _65  and  _66
REMARK   30  A    between atoms: _68  and  _70
REMARK   31  A    between atoms: _70  and  _71
REMARK   32  A    between atoms: _70  and  _73
REMARK   33  A    between atoms: _73  and  _74
REMARK   34  A    between atoms: _76  and  _78
REMARK   35  A    between atoms: _78  and  _79
REMARK   36  A    between atoms: _78  and  _81
REMARK   37  A    between atoms: _81  and  _82
REMARK   38  A    between atoms: _85  and  _87
REMARK   39  A    between atoms: _87  and  _88
REMARK   40  A    between atoms: _91  and  _93
REMARK   41  A    between atoms: _93  and  _94
REMARK   42  A    between atoms: _93  and  _96
REMARK   43  A    between atoms: _96  and  _97
REMARK   44  A    between atoms: _100  and  _102
REMARK   45  A    between atoms: _102  and  _103
REMARK   46  A    between atoms: _102  and  _105
REMARK   47  A    between atoms: _105  and  _106
REMARK   48  A    between atoms: _106  and  _107
REMARK   49  A    between atoms: _107  and  _108
REMARK   50  A    between atoms: _108  and  _109
REMARK   51  A    between atoms: _113  and  _115
REMARK   52  A    between atoms: _115  and  _116
REMARK   53  A    between atoms: _115  and  _118
REMARK   54  A    between atoms: _118  and  _119
REMARK   55  A    between atoms: _122  and  _124
REMARK   56  A    between atoms: _124  and  _125
REMARK   57  A    between atoms: _124  and  _127
REMARK   58  A    between atoms: _127  and  _128
REMARK   59  A    between atoms: _131  and  _133
REMARK   60  A    between atoms: _133  and  _134
REMARK   61  A    between atoms: _133  and  _136
REMARK   62  A    between atoms: _136  and  _137
REMARK   63  A    between atoms: _140  and  _142
REMARK   64  A    between atoms: _142  and  _143
REMARK   65  A    between atoms: _142  and  _145
REMARK   66  A    between atoms: _148  and  _150
REMARK   67  A    between atoms: _150  and  _151
REMARK   68  A    between atoms: _150  and  _153
REMARK   69  A    between atoms: _153  and  _154
REMARK   70  A    between atoms: _157  and  _159
REMARK   71  A    between atoms: _159  and  _160
REMARK   72  A    between atoms: _159  and  _162
REMARK   73  A    between atoms: _162  and  _163
REMARK   74  A    between atoms: _166  and  _168
REMARK   75  A    between atoms: _168  and  _169
REMARK   76  A    between atoms: _171  and  _173
REMARK   77  A    between atoms: _173  and  _174
REMARK   78  A    between atoms: _173  and  _176
REMARK   79  A    between atoms: _176  and  _177
REMARK   80  A    between atoms: _180  and  _182
REMARK   81  A    between atoms: _182  and  _183
REMARK   82  A    between atoms: _185  and  _187
REMARK   83  A    between atoms: _187  and  _188
REMARK   84  A    between atoms: _187  and  _190
REMARK   85  A    between atoms: _190  and  _191
REMARK   86  A    between atoms: _191  and  _192
REMARK   87  A    between atoms: _194  and  _196
REMARK   88  A    between atoms: _196  and  _197
REMARK   89  A    between atoms: _196  and  _199
REMARK   90  A    between atoms: _199  and  _200
REMARK   91  A    between atoms: _203  and  _205
REMARK   92  A    between atoms: _205  and  _206
REMARK   93  A    between atoms: _205  and  _208
REMARK   94  A    between atoms: _208  and  _209
REMARK   95  A    between atoms: _212  and  _214
REMARK   96  A    between atoms: _214  and  _215
REMARK   97  A    between atoms: _214  and  _217
REMARK   98  A    between atoms: _217  and  _218
REMARK   99  A    between atoms: _221  and  _223
REMARK  100  A    between atoms: _223  and  _224
REMARK  101  A    between atoms: _223  and  _226
REMARK  102  A    between atoms: _226  and  _227
REMARK  103  A    between atoms: _230  and  _232
REMARK  104  A    between atoms: _232  and  _233
REMARK  105  A    between atoms: _232  and  _235
REMARK  106  A    between atoms: _235  and  _236
REMARK  107  A    between atoms: _241  and  _243
REMARK  108  A    between atoms: _243  and  _244
REMARK  109  A    between atoms: _243  and  _246
REMARK  110  A    between atoms: _246  and  _247
REMARK  111  A    between atoms: _250  and  _252
REMARK  112  A    between atoms: _252  and  _253
REMARK  113  A    between atoms: _255  and  _257
REMARK  114  A    between atoms: _257  and  _258
REMARK  115  A    between atoms: _257  and  _260
REMARK  116  A    between atoms: _260  and  _261
REMARK  117  A    between atoms: _264  and  _266
REMARK  118  A    between atoms: _266  and  _267
REMARK  119  A    between atoms: _270  and  _272
REMARK  120  A    between atoms: _272  and  _273
REMARK  121  A    between atoms: _275  and  _277
REMARK  122  A    between atoms: _277  and  _278
REMARK  123  A    between atoms: _277  and  _280
REMARK  124  A    between atoms: _283  and  _285
REMARK  125  A    between atoms: _285  and  _286
REMARK  126  A    between atoms: _288  and  _290
REMARK  127  A    between atoms: _290  and  _291
REMARK  128  A    between atoms: _290  and  _293
REMARK  129  A    between atoms: _293  and  _294
REMARK  130  A    between atoms: _300  and  _302
REMARK  131  A    between atoms: _302  and  _303
REMARK  132  A    between atoms: _302  and  _305
REMARK  133  A    between atoms: _305  and  _306
REMARK  134  A    between atoms: _311  and  _312
REMARK  135  A    between atoms: _314  and  _316
REMARK  136  A    between atoms: _316  and  _317
REMARK  137  A    between atoms: _316  and  _319
REMARK  138  A    between atoms: _319  and  _320
REMARK  139  A    between atoms: _325  and  _326
REMARK  140  A    between atoms: _328  and  _330
REMARK  141  A    between atoms: _330  and  _331
REMARK  142  A    between atoms: _330  and  _333
REMARK  143  A    between atoms: _336  and  _338
REMARK  144  A    between atoms: _338  and  _339
REMARK  145  A    between atoms: _338  and  _341
REMARK  146  A    between atoms: _341  and  _342
REMARK  147  A    between atoms: _345  and  _347
REMARK  148  A    between atoms: _347  and  _348
REMARK  149  A    between atoms: _347  and  _350
REMARK  150  A    between atoms: _353  and  _355
REMARK  151  A    between atoms: _355  and  _356
REMARK  152  A    between atoms: _355  and  _358
REMARK  153  A    between atoms: _358  and  _359
REMARK  154  A    between atoms: _362  and  _364
REMARK  155  A    between atoms: _364  and  _365
REMARK  156  A    between atoms: _364  and  _367
REMARK  157  A    between atoms: _367  and  _368
REMARK  158  A    between atoms: _371  and  _373
REMARK  159  A    between atoms: _373  and  _374
REMARK  160  A    between atoms: _373  and  _376
REMARK  161  A    between atoms: _376  and  _377
REMARK  162  A    between atoms: _377  and  _378
REMARK  163  A    between atoms: _378  and  _379
REMARK  164  A    between atoms: _379  and  _380
REMARK  165  A    between atoms: _384  and  _386
REMARK  166  A    between atoms: _386  and  _387
REMARK  167  A    between atoms: _386  and  _389
REMARK  168  A    between atoms: _389  and  _390
REMARK  169  A    between atoms: _395  and  _397
REMARK  170  A    between atoms: _397  and  _398
REMARK  171  A    between atoms: _397  and  _400
REMARK  172  A    between atoms: _400  and  _401
REMARK  173  A    between atoms: _411  and  _413
REMARK  174  A    between atoms: _413  and  _414
REMARK  175  A    between atoms: _413  and  _416
REMARK  176  A    between atoms: _416  and  _417
REMARK  177  A    between atoms: _417  and  _418
REMARK  178  A    between atoms: _421  and  _423
REMARK  179  A    between atoms: _423  and  _424
REMARK  180  A    between atoms: _423  and  _426
REMARK  181  A    between atoms: _426  and  _427
REMARK  182  A    between atoms: _429  and  _431
REMARK  183  A    between atoms: _431  and  _432
REMARK  184  A    between atoms: _431  and  _434
REMARK  185  A    between atoms: _434  and  _435
REMARK  186  A    between atoms: _441  and  _443
REMARK  187  A    between atoms: _443  and  _444
REMARK  188  A    between atoms: _443  and  _446
REMARK  189  A    between atoms: _446  and  _447
REMARK  190  A    between atoms: _450  and  _452
REMARK  191  A    between atoms: _452  and  _453
REMARK  192  A    between atoms: _452  and  _455
REMARK  193  A    between atoms: _458  and  _460
REMARK  194  A    between atoms: _460  and  _461
REMARK  195  A    between atoms: _463  and  _465
REMARK  196  A    between atoms: _465  and  _466
REMARK  197  A    between atoms: _465  and  _468
REMARK  198  A    between atoms: _468  and  _469
REMARK  199  A    between atoms: _472  and  _474
REMARK  200  A    between atoms: _474  and  _475
REMARK  201  A    between atoms: _474  and  _477
REMARK  202  A    between atoms: _477  and  _478
REMARK  203  A    between atoms: _478  and  _479
REMARK  204  A    between atoms: _479  and  _480
REMARK  205  A    between atoms: _480  and  _481
REMARK  206  A    between atoms: _485  and  _487
REMARK  207  A    between atoms: _487  and  _488
REMARK  208  A    between atoms: _487  and  _490
REMARK                            x       y       z     vdW  Elec       q    Type
REMARK                         _______ _______ _______ _____ _____    ______ ____
ROOT
ATOM      1  O   HOH     1      67.047   6.215  22.691  0.00  0.00    +0.000 OA
ENDROOT
TORSDOF 0
REMARK  Name = ../refined-set-2016/3b25/3b25_pocket.pdb
REMARK  208 active torsions:
REMARK  status: ('A' for Active; 'I' for Inactive)
REMARK    1  A    between atoms: _1  and  _3
REMARK    2  A    between atoms: _3  and  _4
REMARK    3  A    between atoms: _3  and  _6
REMARK    4  A    between atoms: _6  and  _7
REMARK    5  A    between atoms: _13  and  _15
REMARK    6  A    between atoms: _15  and  _16
REMARK    7  A    between atoms: _15  and  _18
REMARK    8  A    between atoms: _18  and  _19
REMARK    9  A    between atoms: _19  and  _20
REMARK   10  A    between atoms: _23  and  _25
REMARK   11  A    between atoms: _25  and  _26
REMARK   12  A    between atoms: _25  and  _28
REMARK   13  A    between atoms: _28  and  _29
REMARK   14  A    between atoms: _32  and  _34
REMARK   15  A    between atoms: _34  and  _35
REMARK   16  A    between atoms: _34  and  _37
REMARK   17  A    between atoms: _37  and  _38
REMARK   18  A    between atoms: _41  and  _43
REMARK   19  A    between atoms: _43  and  _44
REMARK   20  A    between atoms: _43  and  _46
REMARK   21  A    between atoms: _46  and  _47
REMARK   22  A    between atoms: _49  and  _51
REMARK   23  A    between atoms: _51  and  _52
REMARK   24  A    between atoms: _51  and  _54
REMARK   25  A    between atoms: _54  and  _55
REMARK   26  A    between atoms: _60  and  _62
REMARK   27  A    between atoms: _62  and  _63
REMARK   28  A    between atoms: _62  and  _65
REMARK   29  A    between atoms: _65  and  _66
REMARK   30  A    between atoms: _68  and  _70
REMARK   31  A    between atoms: _70  and  _71
REMARK   32  A    between atoms: _70  and  _73
REMARK   33  A    between atoms: _73  and  _74
REMARK   34  A    between atoms: _76  and  _78
REMARK   35  A    between atoms: _78  and  _79
REMARK   36  A    between atoms: _78  and  _81
REMARK   37  A    between atoms: _81  and  _82
REMARK   38  A    between atoms: _85  and  _87
REMARK   39  A    between atoms: _87  and  _88
REMARK   40  A    between atoms: _91  and  _93
REMARK   41  A    between atoms: _93  and  _94
REMARK   42  A    between atoms: _93  and  _96
REMARK   43  A    between atoms: _96  and  _97
REMARK   44  A    between atoms: _100  and  _102
REMARK   45  A    between atoms: _102  and  _103
REMARK   46  A    between atoms: _102  and  _105
REMARK   47  A    between atoms: _105  and  _106
REMARK   48  A    between atoms: _106  and  _107
REMARK   49  A    between atoms: _107  and  _108
REMARK   50  A    between atoms: _108  and  _109
REMARK   51  A    between atoms: _113  and  _115
REMARK   52  A    between atoms: _115  and  _116
REMARK   53  A    between atoms: _115  and  _118
REMARK   54  A    between atoms: _118  and  _119
REMARK   55  A    between atoms: _122  and  _124
REMARK   56  A    between atoms: _124  and  _125
REMARK   57  A    between atoms: _124  and  _127
REMARK   58  A    between atoms: _127  and  _128
REMARK   59  A    between atoms: _131  and  _133
REMARK   60  A    between atoms: _133  and  _134
REMARK   61  A    between atoms: _133  and  _136
REMARK   62  A    between atoms: _136  and  _137
REMARK   63  A    between atoms: _140  and  _142
REMARK   64  A    between atoms: _142  and  _143
REMARK   65  A    between atoms: _142  and  _145
REMARK   66  A    between atoms: _148  and  _150
REMARK   67  A    between atoms: _150  and  _151
REMARK   68  A    between atoms: _150  and  _153
REMARK   69  A    between atoms: _153  and  _154
REMARK   70  A    between atoms: _157  and  _159
REMARK   71  A    between atoms: _159  and  _160
REMARK   72  A    between atoms: _159  and  _162
REMARK   73  A    between atoms: _162  and  _163
REMARK   74  A    between atoms: _166  and  _168
REMARK   75  A    between atoms: _168  and  _169
REMARK   76  A    between atoms: _171  and  _173
REMARK   77  A    between atoms: _173  and  _174
REMARK   78  A    between atoms: _173  and  _176
REMARK   79  A    between atoms: _176  and  _177
REMARK   80  A    between atoms: _180  and  _182
REMARK   81  A    between atoms: _182  and  _183
REMARK   82  A    between atoms: _185  and  _187
REMARK   83  A    between atoms: _187  and  _188
REMARK   84  A    between atoms: _187  and  _190
REMARK   85  A    between atoms: _190  and  _191
REMARK   86  A    between atoms: _191  and  _192
REMARK   87  A    between atoms: _194  and  _196
REMARK   88  A    between atoms: _196  and  _197
REMARK   89  A    between atoms: _196  and  _199
REMARK   90  A    between atoms: _199  and  _200
REMARK   91  A    between atoms: _203  and  _205
REMARK   92  A    between atoms: _205  and  _206
REMARK   93  A    between atoms: _205  and  _208
REMARK   94  A    between atoms: _208  and  _209
REMARK   95  A    between atoms: _212  and  _214
REMARK   96  A    between atoms: _214  and  _215
REMARK   97  A    between atoms: _214  and  _217
REMARK   98  A    between atoms: _217  and  _218
REMARK   99  A    between atoms: _221  and  _223
REMARK  100  A    between atoms: _223  and  _224
REMARK  101  A    between atoms: _223  and  _226
REMARK  102  A    between atoms: _226  and  _227
REMARK  103  A    between atoms: _230  and  _232
REMARK  104  A    between atoms: _232  and  _233
REMARK  105  A    between atoms: _232  and  _235
REMARK  106  A    between atoms: _235  and  _236
REMARK  107  A    between atoms: _241  and  _243
REMARK  108  A    between atoms: _243  and  _244
REMARK  109  A    between atoms: _243  and  _246
REMARK  110  A    between atoms: _246  and  _247
REMARK  111  A    between atoms: _250  and  _252
REMARK  112  A    between atoms: _252  and  _253
REMARK  113  A    between atoms: _255  and  _257
REMARK  114  A    between atoms: _257  and  _258
REMARK  115  A    between atoms: _257  and  _260
REMARK  116  A    between atoms: _260  and  _261
REMARK  117  A    between atoms: _264  and  _266
REMARK  118  A    between atoms: _266  and  _267
REMARK  119  A    between atoms: _270  and  _272
REMARK  120  A    between atoms: _272  and  _273
REMARK  121  A    between atoms: _275  and  _277
REMARK  122  A    between atoms: _277  and  _278
REMARK  123  A    between atoms: _277  and  _280
REMARK  124  A    between atoms: _283  and  _285
REMARK  125  A    between atoms: _285  and  _286
REMARK  126  A    between atoms: _288  and  _290
REMARK  127  A    between atoms: _290  and  _291
REMARK  128  A    between atoms: _290  and  _293
REMARK  129  A    between atoms: _293  and  _294
REMARK  130  A    between atoms: _300  and  _302
REMARK  131  A    between atoms: _302  and  _303
REMARK  132  A    between atoms: _302  and  _305
REMARK  133  A    between atoms: _305  and  _306
REMARK  134  A    between atoms: _311  and  _312
REMARK  135  A    between atoms: _314  and  _316
REMARK  136  A    between atoms: _316  and  _317
REMARK  137  A    between atoms: _316  and  _319
REMARK  138  A    between atoms: _319  and  _320
REMARK  139  A    between atoms: _325  and  _326
REMARK  140  A    between atoms: _328  and  _330
REMARK  141  A    between atoms: _330  and  _331
REMARK  142  A    between atoms: _330  and  _333
REMARK  143  A    between atoms: _336  and  _338
REMARK  144  A    between atoms: _338  and  _339
REMARK  145  A    between atoms: _338  and  _341
REMARK  146  A    between atoms: _341  and  _342
REMARK  147  A    between atoms: _345  and  _347
REMARK  148  A    between atoms: _347  and  _348
REMARK  149  A    between atoms: _347  and  _350
REMARK  150  A    between atoms: _353  and  _355
REMARK  151  A    between atoms: _355  and  _356
REMARK  152  A    between atoms: _355  and  _358
REMARK  153  A    between atoms: _358  and  _359
REMARK  154  A    between atoms: _362  and  _364
REMARK  155  A    between atoms: _364  and  _365
REMARK  156  A    between atoms: _364  and  _367
REMARK  157  A    between atoms: _367  and  _368
REMARK  158  A    between atoms: _371  and  _373
REMARK  159  A    between atoms: _373  and  _374
REMARK  160  A    between atoms: _373  and  _376
REMARK  161  A    between atoms: _376  and  _377
REMARK  162  A    between atoms: _377  and  _378
REMARK  163  A    between atoms: _378  and  _379
REMARK  164  A    between atoms: _379  and  _380
REMARK  165  A    between atoms: _384  and  _386
REMARK  166  A    between atoms: _386  and  _387
REMARK  167  A    between atoms: _386  and  _389
REMARK  168  A    between atoms: _389  and  _390
REMARK  169  A    between atoms: _395  and  _397
REMARK  170  A    between atoms: _397  and  _398
REMARK  171  A    between atoms: _397  and  _400
REMARK  172  A    between atoms: _400  and  _401
REMARK  173  A    between atoms: _411  and  _413
REMARK  174  A    between atoms: _413  and  _414
REMARK  175  A    between atoms: _413  and  _416
REMARK  176  A    between atoms: _416  and  _417
REMARK  177  A    between atoms: _417  and  _418
REMARK  178  A    between atoms: _421  and  _423
REMARK  179  A    between atoms: _423  and  _424
REMARK  180  A    between atoms: _423  and  _426
REMARK  181  A    between atoms: _426  and  _427
REMARK  182  A    between atoms: _429  and  _431
REMARK  183  A    between atoms: _431  and  _432
REMARK  184  A    between atoms: _431  and  _434
REMARK  185  A    between atoms: _434  and  _435
REMARK  186  A    between atoms: _441  and  _443
REMARK  187  A    between atoms: _443  and  _444
REMARK  188  A    between atoms: _443  and  _446
REMARK  189  A    between atoms: _446  and  _447
REMARK  190  A    between atoms: _450  and  _452
REMARK  191  A    between atoms: _452  and  _453
REMARK  192  A    between atoms: _452  and  _455
REMARK  193  A    between atoms: _458  and  _460
REMARK  194  A    between atoms: _460  and  _461
REMARK  195  A    between atoms: _463  and  _465
REMARK  196  A    between atoms: _465  and  _466
REMARK  197  A    between atoms: _465  and  _468
REMARK  198  A    between atoms: _468  and  _469
REMARK  199  A    between atoms: _472  and  _474
REMARK  200  A    between atoms: _474  and  _475
REMARK  201  A    between atoms: _474  and  _477
REMARK  202  A    between atoms: _477  and  _478
REMARK  203  A    between atoms: _478  and  _479
REMARK  204  A    between atoms: _479  and  _480
REMARK  205  A    between atoms: _480  and  _481
REMARK  206  A    between atoms: _485  and  _487
REMARK  207  A    between atoms: _487  and  _488
REMARK  208  A    between atoms: _487  and  _490
REMARK                            x       y       z     vdW  Elec       q    Type
REMARK                         _______ _______ _______ _____ _____    ______ ____
ROOT
ATOM      1  O   HOH     1      64.928   7.109  21.001  0.00  0.00    +0.000 OA
ENDROOT
TORSDOF 0
REMARK  Name = ../refined-set-2016/3b25/3b25_pocket.pdb
REMARK  208 active torsions:
REMARK  status: ('A' for Active; 'I' for Inactive)
REMARK    1  A    between atoms: _1  and  _3
REMARK    2  A    between atoms: _3  and  _4
REMARK    3  A    between atoms: _3  and  _6
REMARK    4  A    between atoms: _6  and  _7
REMARK    5  A    between atoms: _13  and  _15
REMARK    6  A    between atoms: _15  and  _16
REMARK    7  A    between atoms: _15  and  _18
REMARK    8  A    between atoms: _18  and  _19
REMARK    9  A    between atoms: _19  and  _20
REMARK   10  A    between atoms: _23  and  _25
REMARK   11  A    between atoms: _25  and  _26
REMARK   12  A    between atoms: _25  and  _28
REMARK   13  A    between atoms: _28  and  _29
REMARK   14  A    between atoms: _32  and  _34
REMARK   15  A    between atoms: _34  and  _35
REMARK   16  A    between atoms: _34  and  _37
REMARK   17  A    between atoms: _37  and  _38
REMARK   18  A    between atoms: _41  and  _43
REMARK   19  A    between atoms: _43  and  _44
REMARK   20  A    between atoms: _43  and  _46
REMARK   21  A    between atoms: _46  and  _47
REMARK   22  A    between atoms: _49  and  _51
REMARK   23  A    between atoms: _51  and  _52
REMARK   24  A    between atoms: _51  and  _54
REMARK   25  A    between atoms: _54  and  _55
REMARK   26  A    between atoms: _60  and  _62
REMARK   27  A    between atoms: _62  and  _63
REMARK   28  A    between atoms: _62  and  _65
REMARK   29  A    between atoms: _65  and  _66
REMARK   30  A    between atoms: _68  and  _70
REMARK   31  A    between atoms: _70  and  _71
REMARK   32  A    between atoms: _70  and  _73
REMARK   33  A    between atoms: _73  and  _74
REMARK   34  A    between atoms: _76  and  _78
REMARK   35  A    between atoms: _78  and  _79
REMARK   36  A    between atoms: _78  and  _81
REMARK   37  A    between atoms: _81  and  _82
REMARK   38  A    between atoms: _85  and  _87
REMARK   39  A    between atoms: _87  and  _88
REMARK   40  A    between atoms: _91  and  _93
REMARK   41  A    between atoms: _93  and  _94
REMARK   42  A    between atoms: _93  and  _96
REMARK   43  A    between atoms: _96  and  _97
REMARK   44  A    between atoms: _100  and  _102
REMARK   45  A    between atoms: _102  and  _103
REMARK   46  A    between atoms: _102  and  _105
REMARK   47  A    between atoms: _105  and  _106
REMARK   48  A    between atoms: _106  and  _107
REMARK   49  A    between atoms: _107  and  _108
REMARK   50  A    between atoms: _108  and  _109
REMARK   51  A    between atoms: _113  and  _115
REMARK   52  A    between atoms: _115  and  _116
REMARK   53  A    between atoms: _115  and  _118
REMARK   54  A    between atoms: _118  and  _119
REMARK   55  A    between atoms: _122  and  _124
REMARK   56  A    between atoms: _124  and  _125
REMARK   57  A    between atoms: _124  and  _127
REMARK   58  A    between atoms: _127  and  _128
REMARK   59  A    between atoms: _131  and  _133
REMARK   60  A    between atoms: _133  and  _134
REMARK   61  A    between atoms: _133  and  _136
REMARK   62  A    between atoms: _136  and  _137
REMARK   63  A    between atoms: _140  and  _142
REMARK   64  A    between atoms: _142  and  _143
REMARK   65  A    between atoms: _142  and  _145
REMARK   66  A    between atoms: _148  and  _150
REMARK   67  A    between atoms: _150  and  _151
REMARK   68  A    between atoms: _150  and  _153
REMARK   69  A    between atoms: _153  and  _154
REMARK   70  A    between atoms: _157  and  _159
REMARK   71  A    between atoms: _159  and  _160
REMARK   72  A    between atoms: _159  and  _162
REMARK   73  A    between atoms: _162  and  _163
REMARK   74  A    between atoms: _166  and  _168
REMARK   75  A    between atoms: _168  and  _169
REMARK   76  A    between atoms: _171  and  _173
REMARK   77  A    between atoms: _173  and  _174
REMARK   78  A    between atoms: _173  and  _176
REMARK   79  A    between atoms: _176  and  _177
REMARK   80  A    between atoms: _180  and  _182
REMARK   81  A    between atoms: _182  and  _183
REMARK   82  A    between atoms: _185  and  _187
REMARK   83  A    between atoms: _187  and  _188
REMARK   84  A    between atoms: _187  and  _190
REMARK   85  A    between atoms: _190  and  _191
REMARK   86  A    between atoms: _191  and  _192
REMARK   87  A    between atoms: _194  and  _196
REMARK   88  A    between atoms: _196  and  _197
REMARK   89  A    between atoms: _196  and  _199
REMARK   90  A    between atoms: _199  and  _200
REMARK   91  A    between atoms: _203  and  _205
REMARK   92  A    between atoms: _205  and  _206
REMARK   93  A    between atoms: _205  and  _208
REMARK   94  A    between atoms: _208  and  _209
REMARK   95  A    between atoms: _212  and  _214
REMARK   96  A    between atoms: _214  and  _215
REMARK   97  A    between atoms: _214  and  _217
REMARK   98  A    between atoms: _217  and  _218
REMARK   99  A    between atoms: _221  and  _223
REMARK  100  A    between atoms: _223  and  _224
REMARK  101  A    between atoms: _223  and  _226
REMARK  102  A    between atoms: _226  and  _227
REMARK  103  A    between atoms: _230  and  _232
REMARK  104  A    between atoms: _232  and  _233
REMARK  105  A    between atoms: _232  and  _235
REMARK  106  A    between atoms: _235  and  _236
REMARK  107  A    between atoms: _241  and  _243
REMARK  108  A    between atoms: _243  and  _244
REMARK  109  A    between atoms: _243  and  _246
REMARK  110  A    between atoms: _246  and  _247
REMARK  111  A    between atoms: _250  and  _252
REMARK  112  A    between atoms: _252  and  _253
REMARK  113  A    between atoms: _255  and  _257
REMARK  114  A    between atoms: _257  and  _258
REMARK  115  A    between atoms: _257  and  _260
REMARK  116  A    between atoms: _260  and  _261
REMARK  117  A    between atoms: _264  and  _266
REMARK  118  A    between atoms: _266  and  _267
REMARK  119  A    between atoms: _270  and  _272
REMARK  120  A    between atoms: _272  and  _273
REMARK  121  A    between atoms: _275  and  _277
REMARK  122  A    between atoms: _277  and  _278
REMARK  123  A    between atoms: _277  and  _280
REMARK  124  A    between atoms: _283  and  _285
REMARK  125  A    between atoms: _285  and  _286
REMARK  126  A    between atoms: _288  and  _290
REMARK  127  A    between atoms: _290  and  _291
REMARK  128  A    between atoms: _290  and  _293
REMARK  129  A    between atoms: _293  and  _294
REMARK  130  A    between atoms: _300  and  _302
REMARK  131  A    between atoms: _302  and  _303
REMARK  132  A    between atoms: _302  and  _305
REMARK  133  A    between atoms: _305  and  _306
REMARK  134  A    between atoms: _311  and  _312
REMARK  135  A    between atoms: _314  and  _316
REMARK  136  A    between atoms: _316  and  _317
REMARK  137  A    between atoms: _316  and  _319
REMARK  138  A    between atoms: _319  and  _320
REMARK  139  A    between atoms: _325  and  _326
REMARK  140  A    between atoms: _328  and  _330
REMARK  141  A    between atoms: _330  and  _331
REMARK  142  A    between atoms: _330  and  _333
REMARK  143  A    between atoms: _336  and  _338
REMARK  144  A    between atoms: _338  and  _339
REMARK  145  A    between atoms: _338  and  _341
REMARK  146  A    between atoms: _341  and  _342
REMARK  147  A    between atoms: _345  and  _347
REMARK  148  A    between atoms: _347  and  _348
REMARK  149  A    between atoms: _347  and  _350
REMARK  150  A    between atoms: _353  and  _355
REMARK  151  A    between atoms: _355  and  _356
REMARK  152  A    between atoms: _355  and  _358
REMARK  153  A    between atoms: _358  and  _359
REMARK  154  A    between atoms: _362  and  _364
REMARK  155  A    between atoms: _364  and  _365
REMARK  156  A    between atoms: _364  and  _367
REMARK  157  A    between atoms: _367  and  _368
REMARK  158  A    between atoms: _371  and  _373
REMARK  159  A    between atoms: _373  and  _374
REMARK  160  A    between atoms: _373  and  _376
REMARK  161  A    between atoms: _376  and  _377
REMARK  162  A    between atoms: _377  and  _378
REMARK  163  A    between atoms: _378  and  _379
REMARK  164  A    between atoms: _379  and  _380
REMARK  165  A    between atoms: _384  and  _386
REMARK  166  A    between atoms: _386  and  _387
REMARK  167  A    between atoms: _386  and  _389
REMARK  168  A    between atoms: _389  and  _390
REMARK  169  A    between atoms: _395  and  _397
REMARK  170  A    between atoms: _397  and  _398
REMARK  171  A    between atoms: _397  and  _400
REMARK  172  A    between atoms: _400  and  _401
REMARK  173  A    between atoms: _411  and  _413
REMARK  174  A    between atoms: _413  and  _414
REMARK  175  A    between atoms: _413  and  _416
REMARK  176  A    between atoms: _416  and  _417
REMARK  177  A    between atoms: _417  and  _418
REMARK  178  A    between atoms: _421  and  _423
REMARK  179  A    between atoms: _423  and  _424
REMARK  180  A    between atoms: _423  and  _426
REMARK  181  A    between atoms: _426  and  _427
REMARK  182  A    between atoms: _429  and  _431
REMARK  183  A    between atoms: _431  and  _432
REMARK  184  A    between atoms: _431  and  _434
REMARK  185  A    between atoms: _434  and  _435
REMARK  186  A    between atoms: _441  and  _443
REMARK  187  A    between atoms: _443  and  _444
REMARK  188  A    between atoms: _443  and  _446
REMARK  189  A    between atoms: _446  and  _447
REMARK  190  A    between atoms: _450  and  _452
REMARK  191  A    between atoms: _452  and  _453
REMARK  192  A    between atoms: _452  and  _455
REMARK  193  A    between atoms: _458  and  _460
REMARK  194  A    between atoms: _460  and  _461
REMARK  195  A    between atoms: _463  and  _465
REMARK  196  A    between atoms: _465  and  _466
REMARK  197  A    between atoms: _465  and  _468
REMARK  198  A    between atoms: _468  and  _469
REMARK  199  A    between atoms: _472  and  _474
REMARK  200  A    between atoms: _474  and  _475
REMARK  201  A    between atoms: _474  and  _477
REMARK  202  A    between atoms: _477  and  _478
REMARK  203  A    between atoms: _478  and  _479
REMARK  204  A    between atoms: _479  and  _480
REMARK  205  A    between atoms: _480  and  _481
REMARK  206  A    between atoms: _485  and  _487
REMARK  207  A    between atoms: _487  and  _488
REMARK  208  A    between atoms: _487  and  _490
REMARK                            x       y       z     vdW  Elec       q    Type
REMARK                         _______ _______ _______ _____ _____    ______ ____
ROOT
ATOM      1  O   HOH     1      65.115   5.850  26.877  0.00  0.00    +0.000 OA
ENDROOT
TORSDOF 0
REMARK  Name = ../refined-set-2016/3b25/3b25_pocket.pdb
REMARK  208 active torsions:
REMARK  status: ('A' for Active; 'I' for Inactive)
REMARK    1  A    between atoms: _1  and  _3
REMARK    2  A    between atoms: _3  and  _4
REMARK    3  A    between atoms: _3  and  _6
REMARK    4  A    between atoms: _6  and  _7
REMARK    5  A    between atoms: _13  and  _15
REMARK    6  A    between atoms: _15  and  _16
REMARK    7  A    between atoms: _15  and  _18
REMARK    8  A    between atoms: _18  and  _19
REMARK    9  A    between atoms: _19  and  _20
REMARK   10  A    between atoms: _23  and  _25
REMARK   11  A    between atoms: _25  and  _26
REMARK   12  A    between atoms: _25  and  _28
REMARK   13  A    between atoms: _28  and  _29
REMARK   14  A    between atoms: _32  and  _34
REMARK   15  A    between atoms: _34  and  _35
REMARK   16  A    between atoms: _34  and  _37
REMARK   17  A    between atoms: _37  and  _38
REMARK   18  A    between atoms: _41  and  _43
REMARK   19  A    between atoms: _43  and  _44
REMARK   20  A    between atoms: _43  and  _46
REMARK   21  A    between atoms: _46  and  _47
REMARK   22  A    between atoms: _49  and  _51
REMARK   23  A    between atoms: _51  and  _52
REMARK   24  A    between atoms: _51  and  _54
REMARK   25  A    between atoms: _54  and  _55
REMARK   26  A    between atoms: _60  and  _62
REMARK   27  A    between atoms: _62  and  _63
REMARK   28  A    between atoms: _62  and  _65
REMARK   29  A    between atoms: _65  and  _66
REMARK   30  A    between atoms: _68  and  _70
REMARK   31  A    between atoms: _70  and  _71
REMARK   32  A    between atoms: _70  and  _73
REMARK   33  A    between atoms: _73  and  _74
REMARK   34  A    between atoms: _76  and  _78
REMARK   35  A    between atoms: _78  and  _79
REMARK   36  A    between atoms: _78  and  _81
REMARK   37  A    between atoms: _81  and  _82
REMARK   38  A    between atoms: _85  and  _87
REMARK   39  A    between atoms: _87  and  _88
REMARK   40  A    between atoms: _91  and  _93
REMARK   41  A    between atoms: _93  and  _94
REMARK   42  A    between atoms: _93  and  _96
REMARK   43  A    between atoms: _96  and  _97
REMARK   44  A    between atoms: _100  and  _102
REMARK   45  A    between atoms: _102  and  _103
REMARK   46  A    between atoms: _102  and  _105
REMARK   47  A    between atoms: _105  and  _106
REMARK   48  A    between atoms: _106  and  _107
REMARK   49  A    between atoms: _107  and  _108
REMARK   50  A    between atoms: _108  and  _109
REMARK   51  A    between atoms: _113  and  _115
REMARK   52  A    between atoms: _115  and  _116
REMARK   53  A    between atoms: _115  and  _118
REMARK   54  A    between atoms: _118  and  _119
REMARK   55  A    between atoms: _122  and  _124
REMARK   56  A    between atoms: _124  and  _125
REMARK   57  A    between atoms: _124  and  _127
REMARK   58  A    between atoms: _127  and  _128
REMARK   59  A    between atoms: _131  and  _133
REMARK   60  A    between atoms: _133  and  _134
REMARK   61  A    between atoms: _133  and  _136
REMARK   62  A    between atoms: _136  and  _137
REMARK   63  A    between atoms: _140  and  _142
REMARK   64  A    between atoms: _142  and  _143
REMARK   65  A    between atoms: _142  and  _145
REMARK   66  A    between atoms: _148  and  _150
REMARK   67  A    between atoms: _150  and  _151
REMARK   68  A    between atoms: _150  and  _153
REMARK   69  A    between atoms: _153  and  _154
REMARK   70  A    between atoms: _157  and  _159
REMARK   71  A    between atoms: _159  and  _160
REMARK   72  A    between atoms: _159  and  _162
REMARK   73  A    between atoms: _162  and  _163
REMARK   74  A    between atoms: _166  and  _168
REMARK   75  A    between atoms: _168  and  _169
REMARK   76  A    between atoms: _171  and  _173
REMARK   77  A    between atoms: _173  and  _174
REMARK   78  A    between atoms: _173  and  _176
REMARK   79  A    between atoms: _176  and  _177
REMARK   80  A    between atoms: _180  and  _182
REMARK   81  A    between atoms: _182  and  _183
REMARK   82  A    between atoms: _185  and  _187
REMARK   83  A    between atoms: _187  and  _188
REMARK   84  A    between atoms: _187  and  _190
REMARK   85  A    between atoms: _190  and  _191
REMARK   86  A    between atoms: _191  and  _192
REMARK   87  A    between atoms: _194  and  _196
REMARK   88  A    between atoms: _196  and  _197
REMARK   89  A    between atoms: _196  and  _199
REMARK   90  A    between atoms: _199  and  _200
REMARK   91  A    between atoms: _203  and  _205
REMARK   92  A    between atoms: _205  and  _206
REMARK   93  A    between atoms: _205  and  _208
REMARK   94  A    between atoms: _208  and  _209
REMARK   95  A    between atoms: _212  and  _214
REMARK   96  A    between atoms: _214  and  _215
REMARK   97  A    between atoms: _214  and  _217
REMARK   98  A    between atoms: _217  and  _218
REMARK   99  A    between atoms: _221  and  _223
REMARK  100  A    between atoms: _223  and  _224
REMARK  101  A    between atoms: _223  and  _226
REMARK  102  A    between atoms: _226  and  _227
REMARK  103  A    between atoms: _230  and  _232
REMARK  104  A    between atoms: _232  and  _233
REMARK  105  A    between atoms: _232  and  _235
REMARK  106  A    between atoms: _235  and  _236
REMARK  107  A    between atoms: _241  and  _243
REMARK  108  A    between atoms: _243  and  _244
REMARK  109  A    between atoms: _243  and  _246
REMARK  110  A    between atoms: _246  and  _247
REMARK  111  A    between atoms: _250  and  _252
REMARK  112  A    between atoms: _252  and  _253
REMARK  113  A    between atoms: _255  and  _257
REMARK  114  A    between atoms: _257  and  _258
REMARK  115  A    between atoms: _257  and  _260
REMARK  116  A    between atoms: _260  and  _261
REMARK  117  A    between atoms: _264  and  _266
REMARK  118  A    between atoms: _266  and  _267
REMARK  119  A    between atoms: _270  and  _272
REMARK  120  A    between atoms: _272  and  _273
REMARK  121  A    between atoms: _275  and  _277
REMARK  122  A    between atoms: _277  and  _278
REMARK  123  A    between atoms: _277  and  _280
REMARK  124  A    between atoms: _283  and  _285
REMARK  125  A    between atoms: _285  and  _286
REMARK  126  A    between atoms: _288  and  _290
REMARK  127  A    between atoms: _290  and  _291
REMARK  128  A    between atoms: _290  and  _293
REMARK  129  A    between atoms: _293  and  _294
REMARK  130  A    between atoms: _300  and  _302
REMARK  131  A    between atoms: _302  and  _303
REMARK  132  A    between atoms: _302  and  _305
REMARK  133  A    between atoms: _305  and  _306
REMARK  134  A    between atoms: _311  and  _312
REMARK  135  A    between atoms: _314  and  _316
REMARK  136  A    between atoms: _316  and  _317
REMARK  137  A    between atoms: _316  and  _319
REMARK  138  A    between atoms: _319  and  _320
REMARK  139  A    between atoms: _325  and  _326
REMARK  140  A    between atoms: _328  and  _330
REMARK  141  A    between atoms: _330  and  _331
REMARK  142  A    between atoms: _330  and  _333
REMARK  143  A    between atoms: _336  and  _338
REMARK  144  A    between atoms: _338  and  _339
REMARK  145  A    between atoms: _338  and  _341
REMARK  146  A    between atoms: _341  and  _342
REMARK  147  A    between atoms: _345  and  _347
REMARK  148  A    between atoms: _347  and  _348
REMARK  149  A    between atoms: _347  and  _350
REMARK  150  A    between atoms: _353  and  _355
REMARK  151  A    between atoms: _355  and  _356
REMARK  152  A    between atoms: _355  and  _358
REMARK  153  A    between atoms: _358  and  _359
REMARK  154  A    between atoms: _362  and  _364
REMARK  155  A    between atoms: _364  and  _365
REMARK  156  A    between atoms: _364  and  _367
REMARK  157  A    between atoms: _367  and  _368
REMARK  158  A    between atoms: _371  and  _373
REMARK  159  A    between atoms: _373  and  _374
REMARK  160  A    between atoms: _373  and  _376
REMARK  161  A    between atoms: _376  and  _377
REMARK  162  A    between atoms: _377  and  _378
REMARK  163  A    between atoms: _378  and  _379
REMARK  164  A    between atoms: _379  and  _380
REMARK  165  A    between atoms: _384  and  _386
REMARK  166  A    between atoms: _386  and  _387
REMARK  167  A    between atoms: _386  and  _389
REMARK  168  A    between atoms: _389  and  _390
REMARK  169  A    between atoms: _395  and  _397
REMARK  170  A    between atoms: _397  and  _398
REMARK  171  A    between atoms: _397  and  _400
REMARK  172  A    between atoms: _400  and  _401
REMARK  173  A    between atoms: _411  and  _413
REMARK  174  A    between atoms: _413  and  _414
REMARK  175  A    between atoms: _413  and  _416
REMARK  176  A    between atoms: _416  and  _417
REMARK  177  A    between atoms: _417  and  _418
REMARK  178  A    between atoms: _421  and  _423
REMARK  179  A    between atoms: _423  and  _424
REMARK  180  A    between atoms: _423  and  _426
REMARK  181  A    between atoms: _426  and  _427
REMARK  182  A    between atoms: _429  and  _431
REMARK  183  A    between atoms: _431  and  _432
REMARK  184  A    between atoms: _431  and  _434
REMARK  185  A    between atoms: _434  and  _435
REMARK  186  A    between atoms: _441  and  _443
REMARK  187  A    between atoms: _443  and  _444
REMARK  188  A    between atoms: _443  and  _446
REMARK  189  A    between atoms: _446  and  _447
REMARK  190  A    between atoms: _450  and  _452
REMARK  191  A    between atoms: _452  and  _453
REMARK  192  A    between atoms: _452  and  _455
REMARK  193  A    between atoms: _458  and  _460
REMARK  194  A    between atoms: _460  and  _461
REMARK  195  A    between atoms: _463  and  _465
REMARK  196  A    between atoms: _465  and  _466
REMARK  197  A    between atoms: _465  and  _468
REMARK  198  A    between atoms: _468  and  _469
REMARK  199  A    between atoms: _472  and  _474
REMARK  200  A    between atoms: _474  and  _475
REMARK  201  A    between atoms: _474  and  _477
REMARK  202  A    between atoms: _477  and  _478
REMARK  203  A    between atoms: _478  and  _479
REMARK  204  A    between atoms: _479  and  _480
REMARK  205  A    between atoms: _480  and  _481
REMARK  206  A    between atoms: _485  and  _487
REMARK  207  A    between atoms: _487  and  _488
REMARK  208  A    between atoms: _487  and  _490
REMARK                            x       y       z     vdW  Elec       q    Type
REMARK                         _______ _______ _______ _____ _____    ______ ____
ROOT
ATOM      1  O   HOH     1      58.902   7.573  24.860  0.00  0.00    +0.000 OA
ENDROOT
TORSDOF 0
REMARK  Name = ../refined-set-2016/3b25/3b25_pocket.pdb
REMARK  208 active torsions:
REMARK  status: ('A' for Active; 'I' for Inactive)
REMARK    1  A    between atoms: _1  and  _3
REMARK    2  A    between atoms: _3  and  _4
REMARK    3  A    between atoms: _3  and  _6
REMARK    4  A    between atoms: _6  and  _7
REMARK    5  A    between atoms: _13  and  _15
REMARK    6  A    between atoms: _15  and  _16
REMARK    7  A    between atoms: _15  and  _18
REMARK    8  A    between atoms: _18  and  _19
REMARK    9  A    between atoms: _19  and  _20
REMARK   10  A    between atoms: _23  and  _25
REMARK   11  A    between atoms: _25  and  _26
REMARK   12  A    between atoms: _25  and  _28
REMARK   13  A    between atoms: _28  and  _29
REMARK   14  A    between atoms: _32  and  _34
REMARK   15  A    between atoms: _34  and  _35
REMARK   16  A    between atoms: _34  and  _37
REMARK   17  A    between atoms: _37  and  _38
REMARK   18  A    between atoms: _41  and  _43
REMARK   19  A    between atoms: _43  and  _44
REMARK   20  A    between atoms: _43  and  _46
REMARK   21  A    between atoms: _46  and  _47
REMARK   22  A    between atoms: _49  and  _51
REMARK   23  A    between atoms: _51  and  _52
REMARK   24  A    between atoms: _51  and  _54
REMARK   25  A    between atoms: _54  and  _55
REMARK   26  A    between atoms: _60  and  _62
REMARK   27  A    between atoms: _62  and  _63
REMARK   28  A    between atoms: _62  and  _65
REMARK   29  A    between atoms: _65  and  _66
REMARK   30  A    between atoms: _68  and  _70
REMARK   31  A    between atoms: _70  and  _71
REMARK   32  A    between atoms: _70  and  _73
REMARK   33  A    between atoms: _73  and  _74
REMARK   34  A    between atoms: _76  and  _78
REMARK   35  A    between atoms: _78  and  _79
REMARK   36  A    between atoms: _78  and  _81
REMARK   37  A    between atoms: _81  and  _82
REMARK   38  A    between atoms: _85  and  _87
REMARK   39  A    between atoms: _87  and  _88
REMARK   40  A    between atoms: _91  and  _93
REMARK   41  A    between atoms: _93  and  _94
REMARK   42  A    between atoms: _93  and  _96
REMARK   43  A    between atoms: _96  and  _97
REMARK   44  A    between atoms: _100  and  _102
REMARK   45  A    between atoms: _102  and  _103
REMARK   46  A    between atoms: _102  and  _105
REMARK   47  A    between atoms: _105  and  _106
REMARK   48  A    between atoms: _106  and  _107
REMARK   49  A    between atoms: _107  and  _108
REMARK   50  A    between atoms: _108  and  _109
REMARK   51  A    between atoms: _113  and  _115
REMARK   52  A    between atoms: _115  and  _116
REMARK   53  A    between atoms: _115  and  _118
REMARK   54  A    between atoms: _118  and  _119
REMARK   55  A    between atoms: _122  and  _124
REMARK   56  A    between atoms: _124  and  _125
REMARK   57  A    between atoms: _124  and  _127
REMARK   58  A    between atoms: _127  and  _128
REMARK   59  A    between atoms: _131  and  _133
REMARK   60  A    between atoms: _133  and  _134
REMARK   61  A    between atoms: _133  and  _136
REMARK   62  A    between atoms: _136  and  _137
REMARK   63  A    between atoms: _140  and  _142
REMARK   64  A    between atoms: _142  and  _143
REMARK   65  A    between atoms: _142  and  _145
REMARK   66  A    between atoms: _148  and  _150
REMARK   67  A    between atoms: _150  and  _151
REMARK   68  A    between atoms: _150  and  _153
REMARK   69  A    between atoms: _153  and  _154
REMARK   70  A    between atoms: _157  and  _159
REMARK   71  A    between atoms: _159  and  _160
REMARK   72  A    between atoms: _159  and  _162
REMARK   73  A    between atoms: _162  and  _163
REMARK   74  A    between atoms: _166  and  _168
REMARK   75  A    between atoms: _168  and  _169
REMARK   76  A    between atoms: _171  and  _173
REMARK   77  A    between atoms: _173  and  _174
REMARK   78  A    between atoms: _173  and  _176
REMARK   79  A    between atoms: _176  and  _177
REMARK   80  A    between atoms: _180  and  _182
REMARK   81  A    between atoms: _182  and  _183
REMARK   82  A    between atoms: _185  and  _187
REMARK   83  A    between atoms: _187  and  _188
REMARK   84  A    between atoms: _187  and  _190
REMARK   85  A    between atoms: _190  and  _191
REMARK   86  A    between atoms: _191  and  _192
REMARK   87  A    between atoms: _194  and  _196
REMARK   88  A    between atoms: _196  and  _197
REMARK   89  A    between atoms: _196  and  _199
REMARK   90  A    between atoms: _199  and  _200
REMARK   91  A    between atoms: _203  and  _205
REMARK   92  A    between atoms: _205  and  _206
REMARK   93  A    between atoms: _205  and  _208
REMARK   94  A    between atoms: _208  and  _209
REMARK   95  A    between atoms: _212  and  _214
REMARK   96  A    between atoms: _214  and  _215
REMARK   97  A    between atoms: _214  and  _217
REMARK   98  A    between atoms: _217  and  _218
REMARK   99  A    between atoms: _221  and  _223
REMARK  100  A    between atoms: _223  and  _224
REMARK  101  A    between atoms: _223  and  _226
REMARK  102  A    between atoms: _226  and  _227
REMARK  103  A    between atoms: _230  and  _232
REMARK  104  A    between atoms: _232  and  _233
REMARK  105  A    between atoms: _232  and  _235
REMARK  106  A    between atoms: _235  and  _236
REMARK  107  A    between atoms: _241  and  _243
REMARK  108  A    between atoms: _243  and  _244
REMARK  109  A    between atoms: _243  and  _246
REMARK  110  A    between atoms: _246  and  _247
REMARK  111  A    between atoms: _250  and  _252
REMARK  112  A    between atoms: _252  and  _253
REMARK  113  A    between atoms: _255  and  _257
REMARK  114  A    between atoms: _257  and  _258
REMARK  115  A    between atoms: _257  and  _260
REMARK  116  A    between atoms: _260  and  _261
REMARK  117  A    between atoms: _264  and  _266
REMARK  118  A    between atoms: _266  and  _267
REMARK  119  A    between atoms: _270  and  _272
REMARK  120  A    between atoms: _272  and  _273
REMARK  121  A    between atoms: _275  and  _277
REMARK  122  A    between atoms: _277  and  _278
REMARK  123  A    between atoms: _277  and  _280
REMARK  124  A    between atoms: _283  and  _285
REMARK  125  A    between atoms: _285  and  _286
REMARK  126  A    between atoms: _288  and  _290
REMARK  127  A    between atoms: _290  and  _291
REMARK  128  A    between atoms: _290  and  _293
REMARK  129  A    between atoms: _293  and  _294
REMARK  130  A    between atoms: _300  and  _302
REMARK  131  A    between atoms: _302  and  _303
REMARK  132  A    between atoms: _302  and  _305
REMARK  133  A    between atoms: _305  and  _306
REMARK  134  A    between atoms: _311  and  _312
REMARK  135  A    between atoms: _314  and  _316
REMARK  136  A    between atoms: _316  and  _317
REMARK  137  A    between atoms: _316  and  _319
REMARK  138  A    between atoms: _319  and  _320
REMARK  139  A    between atoms: _325  and  _326
REMARK  140  A    between atoms: _328  and  _330
REMARK  141  A    between atoms: _330  and  _331
REMARK  142  A    between atoms: _330  and  _333
REMARK  143  A    between atoms: _336  and  _338
REMARK  144  A    between atoms: _338  and  _339
REMARK  145  A    between atoms: _338  and  _341
REMARK  146  A    between atoms: _341  and  _342
REMARK  147  A    between atoms: _345  and  _347
REMARK  148  A    between atoms: _347  and  _348
REMARK  149  A    between atoms: _347  and  _350
REMARK  150  A    between atoms: _353  and  _355
REMARK  151  A    between atoms: _355  and  _356
REMARK  152  A    between atoms: _355  and  _358
REMARK  153  A    between atoms: _358  and  _359
REMARK  154  A    between atoms: _362  and  _364
REMARK  155  A    between atoms: _364  and  _365
REMARK  156  A    between atoms: _364  and  _367
REMARK  157  A    between atoms: _367  and  _368
REMARK  158  A    between atoms: _371  and  _373
REMARK  159  A    between atoms: _373  and  _374
REMARK  160  A    between atoms: _373  and  _376
REMARK  161  A    between atoms: _376  and  _377
REMARK  162  A    between atoms: _377  and  _378
REMARK  163  A    between atoms: _378  and  _379
REMARK  164  A    between atoms: _379  and  _380
REMARK  165  A    between atoms: _384  and  _386
REMARK  166  A    between atoms: _386  and  _387
REMARK  167  A    between atoms: _386  and  _389
REMARK  168  A    between atoms: _389  and  _390
REMARK  169  A    between atoms: _395  and  _397
REMARK  170  A    between atoms: _397  and  _398
REMARK  171  A    between atoms: _397  and  _400
REMARK  172  A    between atoms: _400  and  _401
REMARK  173  A    between atoms: _411  and  _413
REMARK  174  A    between atoms: _413  and  _414
REMARK  175  A    between atoms: _413  and  _416
REMARK  176  A    between atoms: _416  and  _417
REMARK  177  A    between atoms: _417  and  _418
REMARK  178  A    between atoms: _421  and  _423
REMARK  179  A    between atoms: _423  and  _424
REMARK  180  A    between atoms: _423  and  _426
REMARK  181  A    between atoms: _426  and  _427
REMARK  182  A    between atoms: _429  and  _431
REMARK  183  A    between atoms: _431  and  _432
REMARK  184  A    between atoms: _431  and  _434
REMARK  185  A    between atoms: _434  and  _435
REMARK  186  A    between atoms: _441  and  _443
REMARK  187  A    between atoms: _443  and  _444
REMARK  188  A    between atoms: _443  and  _446
REMARK  189  A    between atoms: _446  and  _447
REMARK  190  A    between atoms: _450  and  _452
REMARK  191  A    between atoms: _452  and  _453
REMARK  192  A    between atoms: _452  and  _455
REMARK  193  A    between atoms: _458  and  _460
REMARK  194  A    between atoms: _460  and  _461
REMARK  195  A    between atoms: _463  and  _465
REMARK  196  A    between atoms: _465  and  _466
REMARK  197  A    between atoms: _465  and  _468
REMARK  198  A    between atoms: _468  and  _469
REMARK  199  A    between atoms: _472  and  _474
REMARK  200  A    between atoms: _474  and  _475
REMARK  201  A    between atoms: _474  and  _477
REMARK  202  A    between atoms: _477  and  _478
REMARK  203  A    between atoms: _478  and  _479
REMARK  204  A    between atoms: _479  and  _480
REMARK  205  A    between atoms: _480  and  _481
REMARK  206  A    between atoms: _485  and  _487
REMARK  207  A    between atoms: _487  and  _488
REMARK  208  A    between atoms: _487  and  _490
REMARK                            x       y       z     vdW  Elec       q    Type
REMARK                         _______ _______ _______ _____ _____    ______ ____
ROOT
ATOM      1  O   HOH     1      56.755  12.502  20.223  0.00  0.00    +0.000 OA
ENDROOT
TORSDOF 0
REMARK  Name = ../refined-set-2016/3b25/3b25_pocket.pdb
REMARK  208 active torsions:
REMARK  status: ('A' for Active; 'I' for Inactive)
REMARK    1  A    between atoms: _1  and  _3
REMARK    2  A    between atoms: _3  and  _4
REMARK    3  A    between atoms: _3  and  _6
REMARK    4  A    between atoms: _6  and  _7
REMARK    5  A    between atoms: _13  and  _15
REMARK    6  A    between atoms: _15  and  _16
REMARK    7  A    between atoms: _15  and  _18
REMARK    8  A    between atoms: _18  and  _19
REMARK    9  A    between atoms: _19  and  _20
REMARK   10  A    between atoms: _23  and  _25
REMARK   11  A    between atoms: _25  and  _26
REMARK   12  A    between atoms: _25  and  _28
REMARK   13  A    between atoms: _28  and  _29
REMARK   14  A    between atoms: _32  and  _34
REMARK   15  A    between atoms: _34  and  _35
REMARK   16  A    between atoms: _34  and  _37
REMARK   17  A    between atoms: _37  and  _38
REMARK   18  A    between atoms: _41  and  _43
REMARK   19  A    between atoms: _43  and  _44
REMARK   20  A    between atoms: _43  and  _46
REMARK   21  A    between atoms: _46  and  _47
REMARK   22  A    between atoms: _49  and  _51
REMARK   23  A    between atoms: _51  and  _52
REMARK   24  A    between atoms: _51  and  _54
REMARK   25  A    between atoms: _54  and  _55
REMARK   26  A    between atoms: _60  and  _62
REMARK   27  A    between atoms: _62  and  _63
REMARK   28  A    between atoms: _62  and  _65
REMARK   29  A    between atoms: _65  and  _66
REMARK   30  A    between atoms: _68  and  _70
REMARK   31  A    between atoms: _70  and  _71
REMARK   32  A    between atoms: _70  and  _73
REMARK   33  A    between atoms: _73  and  _74
REMARK   34  A    between atoms: _76  and  _78
REMARK   35  A    between atoms: _78  and  _79
REMARK   36  A    between atoms: _78  and  _81
REMARK   37  A    between atoms: _81  and  _82
REMARK   38  A    between atoms: _85  and  _87
REMARK   39  A    between atoms: _87  and  _88
REMARK   40  A    between atoms: _91  and  _93
REMARK   41  A    between atoms: _93  and  _94
REMARK   42  A    between atoms: _93  and  _96
REMARK   43  A    between atoms: _96  and  _97
REMARK   44  A    between atoms: _100  and  _102
REMARK   45  A    between atoms: _102  and  _103
REMARK   46  A    between atoms: _102  and  _105
REMARK   47  A    between atoms: _105  and  _106
REMARK   48  A    between atoms: _106  and  _107
REMARK   49  A    between atoms: _107  and  _108
REMARK   50  A    between atoms: _108  and  _109
REMARK   51  A    between atoms: _113  and  _115
REMARK   52  A    between atoms: _115  and  _116
REMARK   53  A    between atoms: _115  and  _118
REMARK   54  A    between atoms: _118  and  _119
REMARK   55  A    between atoms: _122  and  _124
REMARK   56  A    between atoms: _124  and  _125
REMARK   57  A    between atoms: _124  and  _127
REMARK   58  A    between atoms: _127  and  _128
REMARK   59  A    between atoms: _131  and  _133
REMARK   60  A    between atoms: _133  and  _134
REMARK   61  A    between atoms: _133  and  _136
REMARK   62  A    between atoms: _136  and  _137
REMARK   63  A    between atoms: _140  and  _142
REMARK   64  A    between atoms: _142  and  _143
REMARK   65  A    between atoms: _142  and  _145
REMARK   66  A    between atoms: _148  and  _150
REMARK   67  A    between atoms: _150  and  _151
REMARK   68  A    between atoms: _150  and  _153
REMARK   69  A    between atoms: _153  and  _154
REMARK   70  A    between atoms: _157  and  _159
REMARK   71  A    between atoms: _159  and  _160
REMARK   72  A    between atoms: _159  and  _162
REMARK   73  A    between atoms: _162  and  _163
REMARK   74  A    between atoms: _166  and  _168
REMARK   75  A    between atoms: _168  and  _169
REMARK   76  A    between atoms: _171  and  _173
REMARK   77  A    between atoms: _173  and  _174
REMARK   78  A    between atoms: _173  and  _176
REMARK   79  A    between atoms: _176  and  _177
REMARK   80  A    between atoms: _180  and  _182
REMARK   81  A    between atoms: _182  and  _183
REMARK   82  A    between atoms: _185  and  _187
REMARK   83  A    between atoms: _187  and  _188
REMARK   84  A    between atoms: _187  and  _190
REMARK   85  A    between atoms: _190  and  _191
REMARK   86  A    between atoms: _191  and  _192
REMARK   87  A    between atoms: _194  and  _196
REMARK   88  A    between atoms: _196  and  _197
REMARK   89  A    between atoms: _196  and  _199
REMARK   90  A    between atoms: _199  and  _200
REMARK   91  A    between atoms: _203  and  _205
REMARK   92  A    between atoms: _205  and  _206
REMARK   93  A    between atoms: _205  and  _208
REMARK   94  A    between atoms: _208  and  _209
REMARK   95  A    between atoms: _212  and  _214
REMARK   96  A    between atoms: _214  and  _215
REMARK   97  A    between atoms: _214  and  _217
REMARK   98  A    between atoms: _217  and  _218
REMARK   99  A    between atoms: _221  and  _223
REMARK  100  A    between atoms: _223  and  _224
REMARK  101  A    between atoms: _223  and  _226
REMARK  102  A    between atoms: _226  and  _227
REMARK  103  A    between atoms: _230  and  _232
REMARK  104  A    between atoms: _232  and  _233
REMARK  105  A    between atoms: _232  and  _235
REMARK  106  A    between atoms: _235  and  _236
REMARK  107  A    between atoms: _241  and  _243
REMARK  108  A    between atoms: _243  and  _244
REMARK  109  A    between atoms: _243  and  _246
REMARK  110  A    between atoms: _246  and  _247
REMARK  111  A    between atoms: _250  and  _252
REMARK  112  A    between atoms: _252  and  _253
REMARK  113  A    between atoms: _255  and  _257
REMARK  114  A    between atoms: _257  and  _258
REMARK  115  A    between atoms: _257  and  _260
REMARK  116  A    between atoms: _260  and  _261
REMARK  117  A    between atoms: _264  and  _266
REMARK  118  A    between atoms: _266  and  _267
REMARK  119  A    between atoms: _270  and  _272
REMARK  120  A    between atoms: _272  and  _273
REMARK  121  A    between atoms: _275  and  _277
REMARK  122  A    between atoms: _277  and  _278
REMARK  123  A    between atoms: _277  and  _280
REMARK  124  A    between atoms: _283  and  _285
REMARK  125  A    between atoms: _285  and  _286
REMARK  126  A    between atoms: _288  and  _290
REMARK  127  A    between atoms: _290  and  _291
REMARK  128  A    between atoms: _290  and  _293
REMARK  129  A    between atoms: _293  and  _294
REMARK  130  A    between atoms: _300  and  _302
REMARK  131  A    between atoms: _302  and  _303
REMARK  132  A    between atoms: _302  and  _305
REMARK  133  A    between atoms: _305  and  _306
REMARK  134  A    between atoms: _311  and  _312
REMARK  135  A    between atoms: _314  and  _316
REMARK  136  A    between atoms: _316  and  _317
REMARK  137  A    between atoms: _316  and  _319
REMARK  138  A    between atoms: _319  and  _320
REMARK  139  A    between atoms: _325  and  _326
REMARK  140  A    between atoms: _328  and  _330
REMARK  141  A    between atoms: _330  and  _331
REMARK  142  A    between atoms: _330  and  _333
REMARK  143  A    between atoms: _336  and  _338
REMARK  144  A    between atoms: _338  and  _339
REMARK  145  A    between atoms: _338  and  _341
REMARK  146  A    between atoms: _341  and  _342
REMARK  147  A    between atoms: _345  and  _347
REMARK  148  A    between atoms: _347  and  _348
REMARK  149  A    between atoms: _347  and  _350
REMARK  150  A    between atoms: _353  and  _355
REMARK  151  A    between atoms: _355  and  _356
REMARK  152  A    between atoms: _355  and  _358
REMARK  153  A    between atoms: _358  and  _359
REMARK  154  A    between atoms: _362  and  _364
REMARK  155  A    between atoms: _364  and  _365
REMARK  156  A    between atoms: _364  and  _367
REMARK  157  A    between atoms: _367  and  _368
REMARK  158  A    between atoms: _371  and  _373
REMARK  159  A    between atoms: _373  and  _374
REMARK  160  A    between atoms: _373  and  _376
REMARK  161  A    between atoms: _376  and  _377
REMARK  162  A    between atoms: _377  and  _378
REMARK  163  A    between atoms: _378  and  _379
REMARK  164  A    between atoms: _379  and  _380
REMARK  165  A    between atoms: _384  and  _386
REMARK  166  A    between atoms: _386  and  _387
REMARK  167  A    between atoms: _386  and  _389
REMARK  168  A    between atoms: _389  and  _390
REMARK  169  A    between atoms: _395  and  _397
REMARK  170  A    between atoms: _397  and  _398
REMARK  171  A    between atoms: _397  and  _400
REMARK  172  A    between atoms: _400  and  _401
REMARK  173  A    between atoms: _411  and  _413
REMARK  174  A    between atoms: _413  and  _414
REMARK  175  A    between atoms: _413  and  _416
REMARK  176  A    between atoms: _416  and  _417
REMARK  177  A    between atoms: _417  and  _418
REMARK  178  A    between atoms: _421  and  _423
REMARK  179  A    between atoms: _423  and  _424
REMARK  180  A    between atoms: _423  and  _426
REMARK  181  A    between atoms: _426  and  _427
REMARK  182  A    between atoms: _429  and  _431
REMARK  183  A    between atoms: _431  and  _432
REMARK  184  A    between atoms: _431  and  _434
REMARK  185  A    between atoms: _434  and  _435
REMARK  186  A    between atoms: _441  and  _443
REMARK  187  A    between atoms: _443  and  _444
REMARK  188  A    between atoms: _443  and  _446
REMARK  189  A    between atoms: _446  and  _447
REMARK  190  A    between atoms: _450  and  _452
REMARK  191  A    between atoms: _452  and  _453
REMARK  192  A    between atoms: _452  and  _455
REMARK  193  A    between atoms: _458  and  _460
REMARK  194  A    between atoms: _460  and  _461
REMARK  195  A    between atoms: _463  and  _465
REMARK  196  A    between atoms: _465  and  _466
REMARK  197  A    between atoms: _465  and  _468
REMARK  198  A    between atoms: _468  and  _469
REMARK  199  A    between atoms: _472  and  _474
REMARK  200  A    between atoms: _474  and  _475
REMARK  201  A    between atoms: _474  and  _477
REMARK  202  A    between atoms: _477  and  _478
REMARK  203  A    between atoms: _478  and  _479
REMARK  204  A    between atoms: _479  and  _480
REMARK  205  A    between atoms: _480  and  _481
REMARK  206  A    between atoms: _485  and  _487
REMARK  207  A    between atoms: _487  and  _488
REMARK  208  A    between atoms: _487  and  _490
REMARK                            x       y       z     vdW  Elec       q    Type
REMARK                         _______ _______ _______ _____ _____    ______ ____
ROOT
ATOM      1  O   HOH     1      58.438  11.409  24.767  0.00  0.00    +0.000 OA
ENDROOT
TORSDOF 0
REMARK  Name = ../refined-set-2016/3b25/3b25_pocket.pdb
REMARK  208 active torsions:
REMARK  status: ('A' for Active; 'I' for Inactive)
REMARK    1  A    between atoms: _1  and  _3
REMARK    2  A    between atoms: _3  and  _4
REMARK    3  A    between atoms: _3  and  _6
REMARK    4  A    between atoms: _6  and  _7
REMARK    5  A    between atoms: _13  and  _15
REMARK    6  A    between atoms: _15  and  _16
REMARK    7  A    between atoms: _15  and  _18
REMARK    8  A    between atoms: _18  and  _19
REMARK    9  A    between atoms: _19  and  _20
REMARK   10  A    between atoms: _23  and  _25
REMARK   11  A    between atoms: _25  and  _26
REMARK   12  A    between atoms: _25  and  _28
REMARK   13  A    between atoms: _28  and  _29
REMARK   14  A    between atoms: _32  and  _34
REMARK   15  A    between atoms: _34  and  _35
REMARK   16  A    between atoms: _34  and  _37
REMARK   17  A    between atoms: _37  and  _38
REMARK   18  A    between atoms: _41  and  _43
REMARK   19  A    between atoms: _43  and  _44
REMARK   20  A    between atoms: _43  and  _46
REMARK   21  A    between atoms: _46  and  _47
REMARK   22  A    between atoms: _49  and  _51
REMARK   23  A    between atoms: _51  and  _52
REMARK   24  A    between atoms: _51  and  _54
REMARK   25  A    between atoms: _54  and  _55
REMARK   26  A    between atoms: _60  and  _62
REMARK   27  A    between atoms: _62  and  _63
REMARK   28  A    between atoms: _62  and  _65
REMARK   29  A    between atoms: _65  and  _66
REMARK   30  A    between atoms: _68  and  _70
REMARK   31  A    between atoms: _70  and  _71
REMARK   32  A    between atoms: _70  and  _73
REMARK   33  A    between atoms: _73  and  _74
REMARK   34  A    between atoms: _76  and  _78
REMARK   35  A    between atoms: _78  and  _79
REMARK   36  A    between atoms: _78  and  _81
REMARK   37  A    between atoms: _81  and  _82
REMARK   38  A    between atoms: _85  and  _87
REMARK   39  A    between atoms: _87  and  _88
REMARK   40  A    between atoms: _91  and  _93
REMARK   41  A    between atoms: _93  and  _94
REMARK   42  A    between atoms: _93  and  _96
REMARK   43  A    between atoms: _96  and  _97
REMARK   44  A    between atoms: _100  and  _102
REMARK   45  A    between atoms: _102  and  _103
REMARK   46  A    between atoms: _102  and  _105
REMARK   47  A    between atoms: _105  and  _106
REMARK   48  A    between atoms: _106  and  _107
REMARK   49  A    between atoms: _107  and  _108
REMARK   50  A    between atoms: _108  and  _109
REMARK   51  A    between atoms: _113  and  _115
REMARK   52  A    between atoms: _115  and  _116
REMARK   53  A    between atoms: _115  and  _118
REMARK   54  A    between atoms: _118  and  _119
REMARK   55  A    between atoms: _122  and  _124
REMARK   56  A    between atoms: _124  and  _125
REMARK   57  A    between atoms: _124  and  _127
REMARK   58  A    between atoms: _127  and  _128
REMARK   59  A    between atoms: _131  and  _133
REMARK   60  A    between atoms: _133  and  _134
REMARK   61  A    between atoms: _133  and  _136
REMARK   62  A    between atoms: _136  and  _137
REMARK   63  A    between atoms: _140  and  _142
REMARK   64  A    between atoms: _142  and  _143
REMARK   65  A    between atoms: _142  and  _145
REMARK   66  A    between atoms: _148  and  _150
REMARK   67  A    between atoms: _150  and  _151
REMARK   68  A    between atoms: _150  and  _153
REMARK   69  A    between atoms: _153  and  _154
REMARK   70  A    between atoms: _157  and  _159
REMARK   71  A    between atoms: _159  and  _160
REMARK   72  A    between atoms: _159  and  _162
REMARK   73  A    between atoms: _162  and  _163
REMARK   74  A    between atoms: _166  and  _168
REMARK   75  A    between atoms: _168  and  _169
REMARK   76  A    between atoms: _171  and  _173
REMARK   77  A    between atoms: _173  and  _174
REMARK   78  A    between atoms: _173  and  _176
REMARK   79  A    between atoms: _176  and  _177
REMARK   80  A    between atoms: _180  and  _182
REMARK   81  A    between atoms: _182  and  _183
REMARK   82  A    between atoms: _185  and  _187
REMARK   83  A    between atoms: _187  and  _188
REMARK   84  A    between atoms: _187  and  _190
REMARK   85  A    between atoms: _190  and  _191
REMARK   86  A    between atoms: _191  and  _192
REMARK   87  A    between atoms: _194  and  _196
REMARK   88  A    between atoms: _196  and  _197
REMARK   89  A    between atoms: _196  and  _199
REMARK   90  A    between atoms: _199  and  _200
REMARK   91  A    between atoms: _203  and  _205
REMARK   92  A    between atoms: _205  and  _206
REMARK   93  A    between atoms: _205  and  _208
REMARK   94  A    between atoms: _208  and  _209
REMARK   95  A    between atoms: _212  and  _214
REMARK   96  A    between atoms: _214  and  _215
REMARK   97  A    between atoms: _214  and  _217
REMARK   98  A    between atoms: _217  and  _218
REMARK   99  A    between atoms: _221  and  _223
REMARK  100  A    between atoms: _223  and  _224
REMARK  101  A    between atoms: _223  and  _226
REMARK  102  A    between atoms: _226  and  _227
REMARK  103  A    between atoms: _230  and  _232
REMARK  104  A    between atoms: _232  and  _233
REMARK  105  A    between atoms: _232  and  _235
REMARK  106  A    between atoms: _235  and  _236
REMARK  107  A    between atoms: _241  and  _243
REMARK  108  A    between atoms: _243  and  _244
REMARK  109  A    between atoms: _243  and  _246
REMARK  110  A    between atoms: _246  and  _247
REMARK  111  A    between atoms: _250  and  _252
REMARK  112  A    between atoms: _252  and  _253
REMARK  113  A    between atoms: _255  and  _257
REMARK  114  A    between atoms: _257  and  _258
REMARK  115  A    between atoms: _257  and  _260
REMARK  116  A    between atoms: _260  and  _261
REMARK  117  A    between atoms: _264  and  _266
REMARK  118  A    between atoms: _266  and  _267
REMARK  119  A    between atoms: _270  and  _272
REMARK  120  A    between atoms: _272  and  _273
REMARK  121  A    between atoms: _275  and  _277
REMARK  122  A    between atoms: _277  and  _278
REMARK  123  A    between atoms: _277  and  _280
REMARK  124  A    between atoms: _283  and  _285
REMARK  125  A    between atoms: _285  and  _286
REMARK  126  A    between atoms: _288  and  _290
REMARK  127  A    between atoms: _290  and  _291
REMARK  128  A    between atoms: _290  and  _293
REMARK  129  A    between atoms: _293  and  _294
REMARK  130  A    between atoms: _300  and  _302
REMARK  131  A    between atoms: _302  and  _303
REMARK  132  A    between atoms: _302  and  _305
REMARK  133  A    between atoms: _305  and  _306
REMARK  134  A    between atoms: _311  and  _312
REMARK  135  A    between atoms: _314  and  _316
REMARK  136  A    between atoms: _316  and  _317
REMARK  137  A    between atoms: _316  and  _319
REMARK  138  A    between atoms: _319  and  _320
REMARK  139  A    between atoms: _325  and  _326
REMARK  140  A    between atoms: _328  and  _330
REMARK  141  A    between atoms: _330  and  _331
REMARK  142  A    between atoms: _330  and  _333
REMARK  143  A    between atoms: _336  and  _338
REMARK  144  A    between atoms: _338  and  _339
REMARK  145  A    between atoms: _338  and  _341
REMARK  146  A    between atoms: _341  and  _342
REMARK  147  A    between atoms: _345  and  _347
REMARK  148  A    between atoms: _347  and  _348
REMARK  149  A    between atoms: _347  and  _350
REMARK  150  A    between atoms: _353  and  _355
REMARK  151  A    between atoms: _355  and  _356
REMARK  152  A    between atoms: _355  and  _358
REMARK  153  A    between atoms: _358  and  _359
REMARK  154  A    between atoms: _362  and  _364
REMARK  155  A    between atoms: _364  and  _365
REMARK  156  A    between atoms: _364  and  _367
REMARK  157  A    between atoms: _367  and  _368
REMARK  158  A    between atoms: _371  and  _373
REMARK  159  A    between atoms: _373  and  _374
REMARK  160  A    between atoms: _373  and  _376
REMARK  161  A    between atoms: _376  and  _377
REMARK  162  A    between atoms: _377  and  _378
REMARK  163  A    between atoms: _378  and  _379
REMARK  164  A    between atoms: _379  and  _380
REMARK  165  A    between atoms: _384  and  _386
REMARK  166  A    between atoms: _386  and  _387
REMARK  167  A    between atoms: _386  and  _389
REMARK  168  A    between atoms: _389  and  _390
REMARK  169  A    between atoms: _395  and  _397
REMARK  170  A    between atoms: _397  and  _398
REMARK  171  A    between atoms: _397  and  _400
REMARK  172  A    between atoms: _400  and  _401
REMARK  173  A    between atoms: _411  and  _413
REMARK  174  A    between atoms: _413  and  _414
REMARK  175  A    between atoms: _413  and  _416
REMARK  176  A    between atoms: _416  and  _417
REMARK  177  A    between atoms: _417  and  _418
REMARK  178  A    between atoms: _421  and  _423
REMARK  179  A    between atoms: _423  and  _424
REMARK  180  A    between atoms: _423  and  _426
REMARK  181  A    between atoms: _426  and  _427
REMARK  182  A    between atoms: _429  and  _431
REMARK  183  A    between atoms: _431  and  _432
REMARK  184  A    between atoms: _431  and  _434
REMARK  185  A    between atoms: _434  and  _435
REMARK  186  A    between atoms: _441  and  _443
REMARK  187  A    between atoms: _443  and  _444
REMARK  188  A    between atoms: _443  and  _446
REMARK  189  A    between atoms: _446  and  _447
REMARK  190  A    between atoms: _450  and  _452
REMARK  191  A    between atoms: _452  and  _453
REMARK  192  A    between atoms: _452  and  _455
REMARK  193  A    between atoms: _458  and  _460
REMARK  194  A    between atoms: _460  and  _461
REMARK  195  A    between atoms: _463  and  _465
REMARK  196  A    between atoms: _465  and  _466
REMARK  197  A    between atoms: _465  and  _468
REMARK  198  A    between atoms: _468  and  _469
REMARK  199  A    between atoms: _472  and  _474
REMARK  200  A    between atoms: _474  and  _475
REMARK  201  A    between atoms: _474  and  _477
REMARK  202  A    between atoms: _477  and  _478
REMARK  203  A    between atoms: _478  and  _479
REMARK  204  A    between atoms: _479  and  _480
REMARK  205  A    between atoms: _480  and  _481
REMARK  206  A    between atoms: _485  and  _487
REMARK  207  A    between atoms: _487  and  _488
REMARK  208  A    between atoms: _487  and  _490
REMARK                            x       y       z     vdW  Elec       q    Type
REMARK                         _______ _______ _______ _____ _____    ______ ____
ROOT
ATOM      1  O   HOH     1      62.842   7.019  28.439  0.00  0.00    +0.000 OA
ENDROOT
TORSDOF 0
REMARK  Name = ../refined-set-2016/3b25/3b25_pocket.pdb
REMARK  208 active torsions:
REMARK  status: ('A' for Active; 'I' for Inactive)
REMARK    1  A    between atoms: _1  and  _3
REMARK    2  A    between atoms: _3  and  _4
REMARK    3  A    between atoms: _3  and  _6
REMARK    4  A    between atoms: _6  and  _7
REMARK    5  A    between atoms: _13  and  _15
REMARK    6  A    between atoms: _15  and  _16
REMARK    7  A    between atoms: _15  and  _18
REMARK    8  A    between atoms: _18  and  _19
REMARK    9  A    between atoms: _19  and  _20
REMARK   10  A    between atoms: _23  and  _25
REMARK   11  A    between atoms: _25  and  _26
REMARK   12  A    between atoms: _25  and  _28
REMARK   13  A    between atoms: _28  and  _29
REMARK   14  A    between atoms: _32  and  _34
REMARK   15  A    between atoms: _34  and  _35
REMARK   16  A    between atoms: _34  and  _37
REMARK   17  A    between atoms: _37  and  _38
REMARK   18  A    between atoms: _41  and  _43
REMARK   19  A    between atoms: _43  and  _44
REMARK   20  A    between atoms: _43  and  _46
REMARK   21  A    between atoms: _46  and  _47
REMARK   22  A    between atoms: _49  and  _51
REMARK   23  A    between atoms: _51  and  _52
REMARK   24  A    between atoms: _51  and  _54
REMARK   25  A    between atoms: _54  and  _55
REMARK   26  A    between atoms: _60  and  _62
REMARK   27  A    between atoms: _62  and  _63
REMARK   28  A    between atoms: _62  and  _65
REMARK   29  A    between atoms: _65  and  _66
REMARK   30  A    between atoms: _68  and  _70
REMARK   31  A    between atoms: _70  and  _71
REMARK   32  A    between atoms: _70  and  _73
REMARK   33  A    between atoms: _73  and  _74
REMARK   34  A    between atoms: _76  and  _78
REMARK   35  A    between atoms: _78  and  _79
REMARK   36  A    between atoms: _78  and  _81
REMARK   37  A    between atoms: _81  and  _82
REMARK   38  A    between atoms: _85  and  _87
REMARK   39  A    between atoms: _87  and  _88
REMARK   40  A    between atoms: _91  and  _93
REMARK   41  A    between atoms: _93  and  _94
REMARK   42  A    between atoms: _93  and  _96
REMARK   43  A    between atoms: _96  and  _97
REMARK   44  A    between atoms: _100  and  _102
REMARK   45  A    between atoms: _102  and  _103
REMARK   46  A    between atoms: _102  and  _105
REMARK   47  A    between atoms: _105  and  _106
REMARK   48  A    between atoms: _106  and  _107
REMARK   49  A    between atoms: _107  and  _108
REMARK   50  A    between atoms: _108  and  _109
REMARK   51  A    between atoms: _113  and  _115
REMARK   52  A    between atoms: _115  and  _116
REMARK   53  A    between atoms: _115  and  _118
REMARK   54  A    between atoms: _118  and  _119
REMARK   55  A    between atoms: _122  and  _124
REMARK   56  A    between atoms: _124  and  _125
REMARK   57  A    between atoms: _124  and  _127
REMARK   58  A    between atoms: _127  and  _128
REMARK   59  A    between atoms: _131  and  _133
REMARK   60  A    between atoms: _133  and  _134
REMARK   61  A    between atoms: _133  and  _136
REMARK   62  A    between atoms: _136  and  _137
REMARK   63  A    between atoms: _140  and  _142
REMARK   64  A    between atoms: _142  and  _143
REMARK   65  A    between atoms: _142  and  _145
REMARK   66  A    between atoms: _148  and  _150
REMARK   67  A    between atoms: _150  and  _151
REMARK   68  A    between atoms: _150  and  _153
REMARK   69  A    between atoms: _153  and  _154
REMARK   70  A    between atoms: _157  and  _159
REMARK   71  A    between atoms: _159  and  _160
REMARK   72  A    between atoms: _159  and  _162
REMARK   73  A    between atoms: _162  and  _163
REMARK   74  A    between atoms: _166  and  _168
REMARK   75  A    between atoms: _168  and  _169
REMARK   76  A    between atoms: _171  and  _173
REMARK   77  A    between atoms: _173  and  _174
REMARK   78  A    between atoms: _173  and  _176
REMARK   79  A    between atoms: _176  and  _177
REMARK   80  A    between atoms: _180  and  _182
REMARK   81  A    between atoms: _182  and  _183
REMARK   82  A    between atoms: _185  and  _187
REMARK   83  A    between atoms: _187  and  _188
REMARK   84  A    between atoms: _187  and  _190
REMARK   85  A    between atoms: _190  and  _191
REMARK   86  A    between atoms: _191  and  _192
REMARK   87  A    between atoms: _194  and  _196
REMARK   88  A    between atoms: _196  and  _197
REMARK   89  A    between atoms: _196  and  _199
REMARK   90  A    between atoms: _199  and  _200
REMARK   91  A    between atoms: _203  and  _205
REMARK   92  A    between atoms: _205  and  _206
REMARK   93  A    between atoms: _205  and  _208
REMARK   94  A    between atoms: _208  and  _209
REMARK   95  A    between atoms: _212  and  _214
REMARK   96  A    between atoms: _214  and  _215
REMARK   97  A    between atoms: _214  and  _217
REMARK   98  A    between atoms: _217  and  _218
REMARK   99  A    between atoms: _221  and  _223
REMARK  100  A    between atoms: _223  and  _224
REMARK  101  A    between atoms: _223  and  _226
REMARK  102  A    between atoms: _226  and  _227
REMARK  103  A    between atoms: _230  and  _232
REMARK  104  A    between atoms: _232  and  _233
REMARK  105  A    between atoms: _232  and  _235
REMARK  106  A    between atoms: _235  and  _236
REMARK  107  A    between atoms: _241  and  _243
REMARK  108  A    between atoms: _243  and  _244
REMARK  109  A    between atoms: _243  and  _246
REMARK  110  A    between atoms: _246  and  _247
REMARK  111  A    between atoms: _250  and  _252
REMARK  112  A    between atoms: _252  and  _253
REMARK  113  A    between atoms: _255  and  _257
REMARK  114  A    between atoms: _257  and  _258
REMARK  115  A    between atoms: _257  and  _260
REMARK  116  A    between atoms: _260  and  _261
REMARK  117  A    between atoms: _264  and  _266
REMARK  118  A    between atoms: _266  and  _267
REMARK  119  A    between atoms: _270  and  _272
REMARK  120  A    between atoms: _272  and  _273
REMARK  121  A    between atoms: _275  and  _277
REMARK  122  A    between atoms: _277  and  _278
REMARK  123  A    between atoms: _277  and  _280
REMARK  124  A    between atoms: _283  and  _285
REMARK  125  A    between atoms: _285  and  _286
REMARK  126  A    between atoms: _288  and  _290
REMARK  127  A    between atoms: _290  and  _291
REMARK  128  A    between atoms: _290  and  _293
REMARK  129  A    between atoms: _293  and  _294
REMARK  130  A    between atoms: _300  and  _302
REMARK  131  A    between atoms: _302  and  _303
REMARK  132  A    between atoms: _302  and  _305
REMARK  133  A    between atoms: _305  and  _306
REMARK  134  A    between atoms: _311  and  _312
REMARK  135  A    between atoms: _314  and  _316
REMARK  136  A    between atoms: _316  and  _317
REMARK  137  A    between atoms: _316  and  _319
REMARK  138  A    between atoms: _319  and  _320
REMARK  139  A    between atoms: _325  and  _326
REMARK  140  A    between atoms: _328  and  _330
REMARK  141  A    between atoms: _330  and  _331
REMARK  142  A    between atoms: _330  and  _333
REMARK  143  A    between atoms: _336  and  _338
REMARK  144  A    between atoms: _338  and  _339
REMARK  145  A    between atoms: _338  and  _341
REMARK  146  A    between atoms: _341  and  _342
REMARK  147  A    between atoms: _345  and  _347
REMARK  148  A    between atoms: _347  and  _348
REMARK  149  A    between atoms: _347  and  _350
REMARK  150  A    between atoms: _353  and  _355
REMARK  151  A    between atoms: _355  and  _356
REMARK  152  A    between atoms: _355  and  _358
REMARK  153  A    between atoms: _358  and  _359
REMARK  154  A    between atoms: _362  and  _364
REMARK  155  A    between atoms: _364  and  _365
REMARK  156  A    between atoms: _364  and  _367
REMARK  157  A    between atoms: _367  and  _368
REMARK  158  A    between atoms: _371  and  _373
REMARK  159  A    between atoms: _373  and  _374
REMARK  160  A    between atoms: _373  and  _376
REMARK  161  A    between atoms: _376  and  _377
REMARK  162  A    between atoms: _377  and  _378
REMARK  163  A    between atoms: _378  and  _379
REMARK  164  A    between atoms: _379  and  _380
REMARK  165  A    between atoms: _384  and  _386
REMARK  166  A    between atoms: _386  and  _387
REMARK  167  A    between atoms: _386  and  _389
REMARK  168  A    between atoms: _389  and  _390
REMARK  169  A    between atoms: _395  and  _397
REMARK  170  A    between atoms: _397  and  _398
REMARK  171  A    between atoms: _397  and  _400
REMARK  172  A    between atoms: _400  and  _401
REMARK  173  A    between atoms: _411  and  _413
REMARK  174  A    between atoms: _413  and  _414
REMARK  175  A    between atoms: _413  and  _416
REMARK  176  A    between atoms: _416  and  _417
REMARK  177  A    between atoms: _417  and  _418
REMARK  178  A    between atoms: _421  and  _423
REMARK  179  A    between atoms: _423  and  _424
REMARK  180  A    between atoms: _423  and  _426
REMARK  181  A    between atoms: _426  and  _427
REMARK  182  A    between atoms: _429  and  _431
REMARK  183  A    between atoms: _431  and  _432
REMARK  184  A    between atoms: _431  and  _434
REMARK  185  A    between atoms: _434  and  _435
REMARK  186  A    between atoms: _441  and  _443
REMARK  187  A    between atoms: _443  and  _444
REMARK  188  A    between atoms: _443  and  _446
REMARK  189  A    between atoms: _446  and  _447
REMARK  190  A    between atoms: _450  and  _452
REMARK  191  A    between atoms: _452  and  _453
REMARK  192  A    between atoms: _452  and  _455
REMARK  193  A    between atoms: _458  and  _460
REMARK  194  A    between atoms: _460  and  _461
REMARK  195  A    between atoms: _463  and  _465
REMARK  196  A    between atoms: _465  and  _466
REMARK  197  A    between atoms: _465  and  _468
REMARK  198  A    between atoms: _468  and  _469
REMARK  199  A    between atoms: _472  and  _474
REMARK  200  A    between atoms: _474  and  _475
REMARK  201  A    between atoms: _474  and  _477
REMARK  202  A    between atoms: _477  and  _478
REMARK  203  A    between atoms: _478  and  _479
REMARK  204  A    between atoms: _479  and  _480
REMARK  205  A    between atoms: _480  and  _481
REMARK  206  A    between atoms: _485  and  _487
REMARK  207  A    between atoms: _487  and  _488
REMARK  208  A    between atoms: _487  and  _490
REMARK                            x       y       z     vdW  Elec       q    Type
REMARK                         _______ _______ _______ _____ _____    ______ ____
ROOT
ATOM      1  O   HOH     1      60.830   6.181  26.594  0.00  0.00    +0.000 OA
ENDROOT
TORSDOF 0
REMARK  Name = ../refined-set-2016/3b25/3b25_pocket.pdb
REMARK  208 active torsions:
REMARK  status: ('A' for Active; 'I' for Inactive)
REMARK    1  A    between atoms: _1  and  _3
REMARK    2  A    between atoms: _3  and  _4
REMARK    3  A    between atoms: _3  and  _6
REMARK    4  A    between atoms: _6  and  _7
REMARK    5  A    between atoms: _13  and  _15
REMARK    6  A    between atoms: _15  and  _16
REMARK    7  A    between atoms: _15  and  _18
REMARK    8  A    between atoms: _18  and  _19
REMARK    9  A    between atoms: _19  and  _20
REMARK   10  A    between atoms: _23  and  _25
REMARK   11  A    between atoms: _25  and  _26
REMARK   12  A    between atoms: _25  and  _28
REMARK   13  A    between atoms: _28  and  _29
REMARK   14  A    between atoms: _32  and  _34
REMARK   15  A    between atoms: _34  and  _35
REMARK   16  A    between atoms: _34  and  _37
REMARK   17  A    between atoms: _37  and  _38
REMARK   18  A    between atoms: _41  and  _43
REMARK   19  A    between atoms: _43  and  _44
REMARK   20  A    between atoms: _43  and  _46
REMARK   21  A    between atoms: _46  and  _47
REMARK   22  A    between atoms: _49  and  _51
REMARK   23  A    between atoms: _51  and  _52
REMARK   24  A    between atoms: _51  and  _54
REMARK   25  A    between atoms: _54  and  _55
REMARK   26  A    between atoms: _60  and  _62
REMARK   27  A    between atoms: _62  and  _63
REMARK   28  A    between atoms: _62  and  _65
REMARK   29  A    between atoms: _65  and  _66
REMARK   30  A    between atoms: _68  and  _70
REMARK   31  A    between atoms: _70  and  _71
REMARK   32  A    between atoms: _70  and  _73
REMARK   33  A    between atoms: _73  and  _74
REMARK   34  A    between atoms: _76  and  _78
REMARK   35  A    between atoms: _78  and  _79
REMARK   36  A    between atoms: _78  and  _81
REMARK   37  A    between atoms: _81  and  _82
REMARK   38  A    between atoms: _85  and  _87
REMARK   39  A    between atoms: _87  and  _88
REMARK   40  A    between atoms: _91  and  _93
REMARK   41  A    between atoms: _93  and  _94
REMARK   42  A    between atoms: _93  and  _96
REMARK   43  A    between atoms: _96  and  _97
REMARK   44  A    between atoms: _100  and  _102
REMARK   45  A    between atoms: _102  and  _103
REMARK   46  A    between atoms: _102  and  _105
REMARK   47  A    between atoms: _105  and  _106
REMARK   48  A    between atoms: _106  and  _107
REMARK   49  A    between atoms: _107  and  _108
REMARK   50  A    between atoms: _108  and  _109
REMARK   51  A    between atoms: _113  and  _115
REMARK   52  A    between atoms: _115  and  _116
REMARK   53  A    between atoms: _115  and  _118
REMARK   54  A    between atoms: _118  and  _119
REMARK   55  A    between atoms: _122  and  _124
REMARK   56  A    between atoms: _124  and  _125
REMARK   57  A    between atoms: _124  and  _127
REMARK   58  A    between atoms: _127  and  _128
REMARK   59  A    between atoms: _131  and  _133
REMARK   60  A    between atoms: _133  and  _134
REMARK   61  A    between atoms: _133  and  _136
REMARK   62  A    between atoms: _136  and  _137
REMARK   63  A    between atoms: _140  and  _142
REMARK   64  A    between atoms: _142  and  _143
REMARK   65  A    between atoms: _142  and  _145
REMARK   66  A    between atoms: _148  and  _150
REMARK   67  A    between atoms: _150  and  _151
REMARK   68  A    between atoms: _150  and  _153
REMARK   69  A    between atoms: _153  and  _154
REMARK   70  A    between atoms: _157  and  _159
REMARK   71  A    between atoms: _159  and  _160
REMARK   72  A    between atoms: _159  and  _162
REMARK   73  A    between atoms: _162  and  _163
REMARK   74  A    between atoms: _166  and  _168
REMARK   75  A    between atoms: _168  and  _169
REMARK   76  A    between atoms: _171  and  _173
REMARK   77  A    between atoms: _173  and  _174
REMARK   78  A    between atoms: _173  and  _176
REMARK   79  A    between atoms: _176  and  _177
REMARK   80  A    between atoms: _180  and  _182
REMARK   81  A    between atoms: _182  and  _183
REMARK   82  A    between atoms: _185  and  _187
REMARK   83  A    between atoms: _187  and  _188
REMARK   84  A    between atoms: _187  and  _190
REMARK   85  A    between atoms: _190  and  _191
REMARK   86  A    between atoms: _191  and  _192
REMARK   87  A    between atoms: _194  and  _196
REMARK   88  A    between atoms: _196  and  _197
REMARK   89  A    between atoms: _196  and  _199
REMARK   90  A    between atoms: _199  and  _200
REMARK   91  A    between atoms: _203  and  _205
REMARK   92  A    between atoms: _205  and  _206
REMARK   93  A    between atoms: _205  and  _208
REMARK   94  A    between atoms: _208  and  _209
REMARK   95  A    between atoms: _212  and  _214
REMARK   96  A    between atoms: _214  and  _215
REMARK   97  A    between atoms: _214  and  _217
REMARK   98  A    between atoms: _217  and  _218
REMARK   99  A    between atoms: _221  and  _223
REMARK  100  A    between atoms: _223  and  _224
REMARK  101  A    between atoms: _223  and  _226
REMARK  102  A    between atoms: _226  and  _227
REMARK  103  A    between atoms: _230  and  _232
REMARK  104  A    between atoms: _232  and  _233
REMARK  105  A    between atoms: _232  and  _235
REMARK  106  A    between atoms: _235  and  _236
REMARK  107  A    between atoms: _241  and  _243
REMARK  108  A    between atoms: _243  and  _244
REMARK  109  A    between atoms: _243  and  _246
REMARK  110  A    between atoms: _246  and  _247
REMARK  111  A    between atoms: _250  and  _252
REMARK  112  A    between atoms: _252  and  _253
REMARK  113  A    between atoms: _255  and  _257
REMARK  114  A    between atoms: _257  and  _258
REMARK  115  A    between atoms: _257  and  _260
REMARK  116  A    between atoms: _260  and  _261
REMARK  117  A    between atoms: _264  and  _266
REMARK  118  A    between atoms: _266  and  _267
REMARK  119  A    between atoms: _270  and  _272
REMARK  120  A    between atoms: _272  and  _273
REMARK  121  A    between atoms: _275  and  _277
REMARK  122  A    between atoms: _277  and  _278
REMARK  123  A    between atoms: _277  and  _280
REMARK  124  A    between atoms: _283  and  _285
REMARK  125  A    between atoms: _285  and  _286
REMARK  126  A    between atoms: _288  and  _290
REMARK  127  A    between atoms: _290  and  _291
REMARK  128  A    between atoms: _290  and  _293
REMARK  129  A    between atoms: _293  and  _294
REMARK  130  A    between atoms: _300  and  _302
REMARK  131  A    between atoms: _302  and  _303
REMARK  132  A    between atoms: _302  and  _305
REMARK  133  A    between atoms: _305  and  _306
REMARK  134  A    between atoms: _311  and  _312
REMARK  135  A    between atoms: _314  and  _316
REMARK  136  A    between atoms: _316  and  _317
REMARK  137  A    between atoms: _316  and  _319
REMARK  138  A    between atoms: _319  and  _320
REMARK  139  A    between atoms: _325  and  _326
REMARK  140  A    between atoms: _328  and  _330
REMARK  141  A    between atoms: _330  and  _331
REMARK  142  A    between atoms: _330  and  _333
REMARK  143  A    between atoms: _336  and  _338
REMARK  144  A    between atoms: _338  and  _339
REMARK  145  A    between atoms: _338  and  _341
REMARK  146  A    between atoms: _341  and  _342
REMARK  147  A    between atoms: _345  and  _347
REMARK  148  A    between atoms: _347  and  _348
REMARK  149  A    between atoms: _347  and  _350
REMARK  150  A    between atoms: _353  and  _355
REMARK  151  A    between atoms: _355  and  _356
REMARK  152  A    between atoms: _355  and  _358
REMARK  153  A    between atoms: _358  and  _359
REMARK  154  A    between atoms: _362  and  _364
REMARK  155  A    between atoms: _364  and  _365
REMARK  156  A    between atoms: _364  and  _367
REMARK  157  A    between atoms: _367  and  _368
REMARK  158  A    between atoms: _371  and  _373
REMARK  159  A    between atoms: _373  and  _374
REMARK  160  A    between atoms: _373  and  _376
REMARK  161  A    between atoms: _376  and  _377
REMARK  162  A    between atoms: _377  and  _378
REMARK  163  A    between atoms: _378  and  _379
REMARK  164  A    between atoms: _379  and  _380
REMARK  165  A    between atoms: _384  and  _386
REMARK  166  A    between atoms: _386  and  _387
REMARK  167  A    between atoms: _386  and  _389
REMARK  168  A    between atoms: _389  and  _390
REMARK  169  A    between atoms: _395  and  _397
REMARK  170  A    between atoms: _397  and  _398
REMARK  171  A    between atoms: _397  and  _400
REMARK  172  A    between atoms: _400  and  _401
REMARK  173  A    between atoms: _411  and  _413
REMARK  174  A    between atoms: _413  and  _414
REMARK  175  A    between atoms: _413  and  _416
REMARK  176  A    between atoms: _416  and  _417
REMARK  177  A    between atoms: _417  and  _418
REMARK  178  A    between atoms: _421  and  _423
REMARK  179  A    between atoms: _423  and  _424
REMARK  180  A    between atoms: _423  and  _426
REMARK  181  A    between atoms: _426  and  _427
REMARK  182  A    between atoms: _429  and  _431
REMARK  183  A    between atoms: _431  and  _432
REMARK  184  A    between atoms: _431  and  _434
REMARK  185  A    between atoms: _434  and  _435
REMARK  186  A    between atoms: _441  and  _443
REMARK  187  A    between atoms: _443  and  _444
REMARK  188  A    between atoms: _443  and  _446
REMARK  189  A    between atoms: _446  and  _447
REMARK  190  A    between atoms: _450  and  _452
REMARK  191  A    between atoms: _452  and  _453
REMARK  192  A    between atoms: _452  and  _455
REMARK  193  A    between atoms: _458  and  _460
REMARK  194  A    between atoms: _460  and  _461
REMARK  195  A    between atoms: _463  and  _465
REMARK  196  A    between atoms: _465  and  _466
REMARK  197  A    between atoms: _465  and  _468
REMARK  198  A    between atoms: _468  and  _469
REMARK  199  A    between atoms: _472  and  _474
REMARK  200  A    between atoms: _474  and  _475
REMARK  201  A    between atoms: _474  and  _477
REMARK  202  A    between atoms: _477  and  _478
REMARK  203  A    between atoms: _478  and  _479
REMARK  204  A    between atoms: _479  and  _480
REMARK  205  A    between atoms: _480  and  _481
REMARK  206  A    between atoms: _485  and  _487
REMARK  207  A    between atoms: _487  and  _488
REMARK  208  A    between atoms: _487  and  _490
REMARK                            x       y       z     vdW  Elec       q    Type
REMARK                         _______ _______ _______ _____ _____    ______ ____
ROOT
ATOM      1  O   HOH     1      60.076   9.707  25.798  0.00  0.00    +0.000 OA
ENDROOT
TORSDOF 0
REMARK  Name = ../refined-set-2016/3b25/3b25_pocket.pdb
REMARK  208 active torsions:
REMARK  status: ('A' for Active; 'I' for Inactive)
REMARK    1  A    between atoms: _1  and  _3
REMARK    2  A    between atoms: _3  and  _4
REMARK    3  A    between atoms: _3  and  _6
REMARK    4  A    between atoms: _6  and  _7
REMARK    5  A    between atoms: _13  and  _15
REMARK    6  A    between atoms: _15  and  _16
REMARK    7  A    between atoms: _15  and  _18
REMARK    8  A    between atoms: _18  and  _19
REMARK    9  A    between atoms: _19  and  _20
REMARK   10  A    between atoms: _23  and  _25
REMARK   11  A    between atoms: _25  and  _26
REMARK   12  A    between atoms: _25  and  _28
REMARK   13  A    between atoms: _28  and  _29
REMARK   14  A    between atoms: _32  and  _34
REMARK   15  A    between atoms: _34  and  _35
REMARK   16  A    between atoms: _34  and  _37
REMARK   17  A    between atoms: _37  and  _38
REMARK   18  A    between atoms: _41  and  _43
REMARK   19  A    between atoms: _43  and  _44
REMARK   20  A    between atoms: _43  and  _46
REMARK   21  A    between atoms: _46  and  _47
REMARK   22  A    between atoms: _49  and  _51
REMARK   23  A    between atoms: _51  and  _52
REMARK   24  A    between atoms: _51  and  _54
REMARK   25  A    between atoms: _54  and  _55
REMARK   26  A    between atoms: _60  and  _62
REMARK   27  A    between atoms: _62  and  _63
REMARK   28  A    between atoms: _62  and  _65
REMARK   29  A    between atoms: _65  and  _66
REMARK   30  A    between atoms: _68  and  _70
REMARK   31  A    between atoms: _70  and  _71
REMARK   32  A    between atoms: _70  and  _73
REMARK   33  A    between atoms: _73  and  _74
REMARK   34  A    between atoms: _76  and  _78
REMARK   35  A    between atoms: _78  and  _79
REMARK   36  A    between atoms: _78  and  _81
REMARK   37  A    between atoms: _81  and  _82
REMARK   38  A    between atoms: _85  and  _87
REMARK   39  A    between atoms: _87  and  _88
REMARK   40  A    between atoms: _91  and  _93
REMARK   41  A    between atoms: _93  and  _94
REMARK   42  A    between atoms: _93  and  _96
REMARK   43  A    between atoms: _96  and  _97
REMARK   44  A    between atoms: _100  and  _102
REMARK   45  A    between atoms: _102  and  _103
REMARK   46  A    between atoms: _102  and  _105
REMARK   47  A    between atoms: _105  and  _106
REMARK   48  A    between atoms: _106  and  _107
REMARK   49  A    between atoms: _107  and  _108
REMARK   50  A    between atoms: _108  and  _109
REMARK   51  A    between atoms: _113  and  _115
REMARK   52  A    between atoms: _115  and  _116
REMARK   53  A    between atoms: _115  and  _118
REMARK   54  A    between atoms: _118  and  _119
REMARK   55  A    between atoms: _122  and  _124
REMARK   56  A    between atoms: _124  and  _125
REMARK   57  A    between atoms: _124  and  _127
REMARK   58  A    between atoms: _127  and  _128
REMARK   59  A    between atoms: _131  and  _133
REMARK   60  A    between atoms: _133  and  _134
REMARK   61  A    between atoms: _133  and  _136
REMARK   62  A    between atoms: _136  and  _137
REMARK   63  A    between atoms: _140  and  _142
REMARK   64  A    between atoms: _142  and  _143
REMARK   65  A    between atoms: _142  and  _145
REMARK   66  A    between atoms: _148  and  _150
REMARK   67  A    between atoms: _150  and  _151
REMARK   68  A    between atoms: _150  and  _153
REMARK   69  A    between atoms: _153  and  _154
REMARK   70  A    between atoms: _157  and  _159
REMARK   71  A    between atoms: _159  and  _160
REMARK   72  A    between atoms: _159  and  _162
REMARK   73  A    between atoms: _162  and  _163
REMARK   74  A    between atoms: _166  and  _168
REMARK   75  A    between atoms: _168  and  _169
REMARK   76  A    between atoms: _171  and  _173
REMARK   77  A    between atoms: _173  and  _174
REMARK   78  A    between atoms: _173  and  _176
REMARK   79  A    between atoms: _176  and  _177
REMARK   80  A    between atoms: _180  and  _182
REMARK   81  A    between atoms: _182  and  _183
REMARK   82  A    between atoms: _185  and  _187
REMARK   83  A    between atoms: _187  and  _188
REMARK   84  A    between atoms: _187  and  _190
REMARK   85  A    between atoms: _190  and  _191
REMARK   86  A    between atoms: _191  and  _192
REMARK   87  A    between atoms: _194  and  _196
REMARK   88  A    between atoms: _196  and  _197
REMARK   89  A    between atoms: _196  and  _199
REMARK   90  A    between atoms: _199  and  _200
REMARK   91  A    between atoms: _203  and  _205
REMARK   92  A    between atoms: _205  and  _206
REMARK   93  A    between atoms: _205  and  _208
REMARK   94  A    between atoms: _208  and  _209
REMARK   95  A    between atoms: _212  and  _214
REMARK   96  A    between atoms: _214  and  _215
REMARK   97  A    between atoms: _214  and  _217
REMARK   98  A    between atoms: _217  and  _218
REMARK   99  A    between atoms: _221  and  _223
REMARK  100  A    between atoms: _223  and  _224
REMARK  101  A    between atoms: _223  and  _226
REMARK  102  A    between atoms: _226  and  _227
REMARK  103  A    between atoms: _230  and  _232
REMARK  104  A    between atoms: _232  and  _233
REMARK  105  A    between atoms: _232  and  _235
REMARK  106  A    between atoms: _235  and  _236
REMARK  107  A    between atoms: _241  and  _243
REMARK  108  A    between atoms: _243  and  _244
REMARK  109  A    between atoms: _243  and  _246
REMARK  110  A    between atoms: _246  and  _247
REMARK  111  A    between atoms: _250  and  _252
REMARK  112  A    between atoms: _252  and  _253
REMARK  113  A    between atoms: _255  and  _257
REMARK  114  A    between atoms: _257  and  _258
REMARK  115  A    between atoms: _257  and  _260
REMARK  116  A    between atoms: _260  and  _261
REMARK  117  A    between atoms: _264  and  _266
REMARK  118  A    between atoms: _266  and  _267
REMARK  119  A    between atoms: _270  and  _272
REMARK  120  A    between atoms: _272  and  _273
REMARK  121  A    between atoms: _275  and  _277
REMARK  122  A    between atoms: _277  and  _278
REMARK  123  A    between atoms: _277  and  _280
REMARK  124  A    between atoms: _283  and  _285
REMARK  125  A    between atoms: _285  and  _286
REMARK  126  A    between atoms: _288  and  _290
REMARK  127  A    between atoms: _290  and  _291
REMARK  128  A    between atoms: _290  and  _293
REMARK  129  A    between atoms: _293  and  _294
REMARK  130  A    between atoms: _300  and  _302
REMARK  131  A    between atoms: _302  and  _303
REMARK  132  A    between atoms: _302  and  _305
REMARK  133  A    between atoms: _305  and  _306
REMARK  134  A    between atoms: _311  and  _312
REMARK  135  A    between atoms: _314  and  _316
REMARK  136  A    between atoms: _316  and  _317
REMARK  137  A    between atoms: _316  and  _319
REMARK  138  A    between atoms: _319  and  _320
REMARK  139  A    between atoms: _325  and  _326
REMARK  140  A    between atoms: _328  and  _330
REMARK  141  A    between atoms: _330  and  _331
REMARK  142  A    between atoms: _330  and  _333
REMARK  143  A    between atoms: _336  and  _338
REMARK  144  A    between atoms: _338  and  _339
REMARK  145  A    between atoms: _338  and  _341
REMARK  146  A    between atoms: _341  and  _342
REMARK  147  A    between atoms: _345  and  _347
REMARK  148  A    between atoms: _347  and  _348
REMARK  149  A    between atoms: _347  and  _350
REMARK  150  A    between atoms: _353  and  _355
REMARK  151  A    between atoms: _355  and  _356
REMARK  152  A    between atoms: _355  and  _358
REMARK  153  A    between atoms: _358  and  _359
REMARK  154  A    between atoms: _362  and  _364
REMARK  155  A    between atoms: _364  and  _365
REMARK  156  A    between atoms: _364  and  _367
REMARK  157  A    between atoms: _367  and  _368
REMARK  158  A    between atoms: _371  and  _373
REMARK  159  A    between atoms: _373  and  _374
REMARK  160  A    between atoms: _373  and  _376
REMARK  161  A    between atoms: _376  and  _377
REMARK  162  A    between atoms: _377  and  _378
REMARK  163  A    between atoms: _378  and  _379
REMARK  164  A    between atoms: _379  and  _380
REMARK  165  A    between atoms: _384  and  _386
REMARK  166  A    between atoms: _386  and  _387
REMARK  167  A    between atoms: _386  and  _389
REMARK  168  A    between atoms: _389  and  _390
REMARK  169  A    between atoms: _395  and  _397
REMARK  170  A    between atoms: _397  and  _398
REMARK  171  A    between atoms: _397  and  _400
REMARK  172  A    between atoms: _400  and  _401
REMARK  173  A    between atoms: _411  and  _413
REMARK  174  A    between atoms: _413  and  _414
REMARK  175  A    between atoms: _413  and  _416
REMARK  176  A    between atoms: _416  and  _417
REMARK  177  A    between atoms: _417  and  _418
REMARK  178  A    between atoms: _421  and  _423
REMARK  179  A    between atoms: _423  and  _424
REMARK  180  A    between atoms: _423  and  _426
REMARK  181  A    between atoms: _426  and  _427
REMARK  182  A    between atoms: _429  and  _431
REMARK  183  A    between atoms: _431  and  _432
REMARK  184  A    between atoms: _431  and  _434
REMARK  185  A    between atoms: _434  and  _435
REMARK  186  A    between atoms: _441  and  _443
REMARK  187  A    between atoms: _443  and  _444
REMARK  188  A    between atoms: _443  and  _446
REMARK  189  A    between atoms: _446  and  _447
REMARK  190  A    between atoms: _450  and  _452
REMARK  191  A    between atoms: _452  and  _453
REMARK  192  A    between atoms: _452  and  _455
REMARK  193  A    between atoms: _458  and  _460
REMARK  194  A    between atoms: _460  and  _461
REMARK  195  A    between atoms: _463  and  _465
REMARK  196  A    between atoms: _465  and  _466
REMARK  197  A    between atoms: _465  and  _468
REMARK  198  A    between atoms: _468  and  _469
REMARK  199  A    between atoms: _472  and  _474
REMARK  200  A    between atoms: _474  and  _475
REMARK  201  A    between atoms: _474  and  _477
REMARK  202  A    between atoms: _477  and  _478
REMARK  203  A    between atoms: _478  and  _479
REMARK  204  A    between atoms: _479  and  _480
REMARK  205  A    between atoms: _480  and  _481
REMARK  206  A    between atoms: _485  and  _487
REMARK  207  A    between atoms: _487  and  _488
REMARK  208  A    between atoms: _487  and  _490
REMARK                            x       y       z     vdW  Elec       q    Type
REMARK                         _______ _______ _______ _____ _____    ______ ____
ROOT
ATOM      1  O   HOH     1      58.157   5.828  26.880  0.00  0.00    +0.000 OA
ENDROOT
TORSDOF 0
