REMARK  Name = ../refined-set-2016/2qrh/2qrh_pocket.pdb
REMARK  252 active torsions:
REMARK  status: ('A' for Active; 'I' for Inactive)
REMARK    1  A    between atoms: _1  and  _3
REMARK    2  A    between atoms: _3  and  _4
REMARK    3  A    between atoms: _3  and  _6
REMARK    4  A    between atoms: _6  and  _7
REMARK    5  A    between atoms: _12  and  _13
REMARK    6  A    between atoms: _15  and  _17
REMARK    7  A    between atoms: _17  and  _18
REMARK    8  A    between atoms: _17  and  _20
REMARK    9  A    between atoms: _20  and  _21
REMARK   10  A    between atoms: _21  and  _22
REMARK   11  A    between atoms: _25  and  _27
REMARK   12  A    between atoms: _27  and  _28
REMARK   13  A    between atoms: _30  and  _32
REMARK   14  A    between atoms: _32  and  _33
REMARK   15  A    between atoms: _32  and  _35
REMARK   16  A    between atoms: _35  and  _36
REMARK   17  A    between atoms: _41  and  _43
REMARK   18  A    between atoms: _43  and  _44
REMARK   19  A    between atoms: _46  and  _48
REMARK   20  A    between atoms: _48  and  _49
REMARK   21  A    between atoms: _51  and  _53
REMARK   22  A    between atoms: _53  and  _54
REMARK   23  A    between atoms: _53  and  _56
REMARK   24  A    between atoms: _56  and  _57
REMARK   25  A    between atoms: _60  and  _62
REMARK   26  A    between atoms: _62  and  _63
REMARK   27  A    between atoms: _65  and  _67
REMARK   28  A    between atoms: _67  and  _68
REMARK   29  A    between atoms: _67  and  _70
REMARK   30  A    between atoms: _70  and  _71
REMARK   31  A    between atoms: _71  and  _72
REMARK   32  A    between atoms: _72  and  _73
REMARK   33  A    between atoms: _82  and  _84
REMARK   34  A    between atoms: _84  and  _85
REMARK   35  A    between atoms: _84  and  _87
REMARK   36  A    between atoms: _87  and  _88
REMARK   37  A    between atoms: _91  and  _93
REMARK   38  A    between atoms: _93  and  _94
REMARK   39  A    between atoms: _97  and  _99
REMARK   40  A    between atoms: _99  and  _100
REMARK   41  A    between atoms: _99  and  _102
REMARK   42  A    between atoms: _102  and  _103
REMARK   43  A    between atoms: _109  and  _111
REMARK   44  A    between atoms: _111  and  _112
REMARK   45  A    between atoms: _111  and  _114
REMARK   46  A    between atoms: _114  and  _115
REMARK   47  A    between atoms: _120  and  _121
REMARK   48  A    between atoms: _124  and  _125
REMARK   49  A    between atoms: _130  and  _132
REMARK   50  A    between atoms: _132  and  _133
REMARK   51  A    between atoms: _132  and  _135
REMARK   52  A    between atoms: _135  and  _136
REMARK   53  A    between atoms: _141  and  _143
REMARK   54  A    between atoms: _143  and  _144
REMARK   55  A    between atoms: _143  and  _146
REMARK   56  A    between atoms: _146  and  _147
REMARK   57  A    between atoms: _150  and  _152
REMARK   58  A    between atoms: _152  and  _153
REMARK   59  A    between atoms: _152  and  _155
REMARK   60  A    between atoms: _155  and  _156
REMARK   61  A    between atoms: _161  and  _163
REMARK   62  A    between atoms: _163  and  _164
REMARK   63  A    between atoms: _163  and  _166
REMARK   64  A    between atoms: _166  and  _167
REMARK   65  A    between atoms: _173  and  _175
REMARK   66  A    between atoms: _175  and  _176
REMARK   67  A    between atoms: _175  and  _178
REMARK   68  A    between atoms: _178  and  _179
REMARK   69  A    between atoms: _185  and  _187
REMARK   70  A    between atoms: _187  and  _188
REMARK   71  A    between atoms: _187  and  _190
REMARK   72  A    between atoms: _190  and  _191
REMARK   73  A    between atoms: _191  and  _192
REMARK   74  A    between atoms: _195  and  _197
REMARK   75  A    between atoms: _197  and  _198
REMARK   76  A    between atoms: _197  and  _200
REMARK   77  A    between atoms: _200  and  _201
REMARK   78  A    between atoms: _201  and  _202
REMARK   79  A    between atoms: _202  and  _203
REMARK   80  A    between atoms: _212  and  _214
REMARK   81  A    between atoms: _214  and  _215
REMARK   82  A    between atoms: _214  and  _217
REMARK   83  A    between atoms: _217  and  _218
REMARK   84  A    between atoms: _223  and  _225
REMARK   85  A    between atoms: _225  and  _226
REMARK   86  A    between atoms: _225  and  _228
REMARK   87  A    between atoms: _228  and  _229
REMARK   88  A    between atoms: _232  and  _234
REMARK   89  A    between atoms: _234  and  _235
REMARK   90  A    between atoms: _234  and  _237
REMARK   91  A    between atoms: _237  and  _238
REMARK   92  A    between atoms: _241  and  _243
REMARK   93  A    between atoms: _243  and  _244
REMARK   94  A    between atoms: _243  and  _246
REMARK   95  A    between atoms: _246  and  _247
REMARK   96  A    between atoms: _252  and  _254
REMARK   97  A    between atoms: _254  and  _255
REMARK   98  A    between atoms: _254  and  _257
REMARK   99  A    between atoms: _257  and  _258
REMARK  100  A    between atoms: _261  and  _263
REMARK  101  A    between atoms: _263  and  _264
REMARK  102  A    between atoms: _263  and  _266
REMARK  103  A    between atoms: _266  and  _267
REMARK  104  A    between atoms: _272  and  _274
REMARK  105  A    between atoms: _274  and  _275
REMARK  106  A    between atoms: _274  and  _277
REMARK  107  A    between atoms: _277  and  _278
REMARK  108  A    between atoms: _283  and  _285
REMARK  109  A    between atoms: _285  and  _286
REMARK  110  A    between atoms: _285  and  _288
REMARK  111  A    between atoms: _288  and  _289
REMARK  112  A    between atoms: _292  and  _294
REMARK  113  A    between atoms: _294  and  _295
REMARK  114  A    between atoms: _294  and  _297
REMARK  115  A    between atoms: _300  and  _302
REMARK  116  A    between atoms: _302  and  _303
REMARK  117  A    between atoms: _302  and  _305
REMARK  118  A    between atoms: _305  and  _306
REMARK  119  A    between atoms: _309  and  _311
REMARK  120  A    between atoms: _311  and  _312
REMARK  121  A    between atoms: _311  and  _314
REMARK  122  A    between atoms: _314  and  _315
REMARK  123  A    between atoms: _315  and  _316
REMARK  124  A    between atoms: _319  and  _321
REMARK  125  A    between atoms: _321  and  _322
REMARK  126  A    between atoms: _325  and  _327
REMARK  127  A    between atoms: _327  and  _328
REMARK  128  A    between atoms: _327  and  _330
REMARK  129  A    between atoms: _330  and  _331
REMARK  130  A    between atoms: _334  and  _336
REMARK  131  A    between atoms: _336  and  _337
REMARK  132  A    between atoms: _336  and  _339
REMARK  133  A    between atoms: _339  and  _340
REMARK  134  A    between atoms: _340  and  _341
REMARK  135  A    between atoms: _344  and  _346
REMARK  136  A    between atoms: _346  and  _347
REMARK  137  A    between atoms: _346  and  _349
REMARK  138  A    between atoms: _349  and  _350
REMARK  139  A    between atoms: _355  and  _357
REMARK  140  A    between atoms: _357  and  _358
REMARK  141  A    between atoms: _360  and  _362
REMARK  142  A    between atoms: _362  and  _363
REMARK  143  A    between atoms: _362  and  _365
REMARK  144  A    between atoms: _368  and  _370
REMARK  145  A    between atoms: _370  and  _371
REMARK  146  A    between atoms: _374  and  _376
REMARK  147  A    between atoms: _376  and  _377
REMARK  148  A    between atoms: _376  and  _379
REMARK  149  A    between atoms: _379  and  _380
REMARK  150  A    between atoms: _385  and  _387
REMARK  151  A    between atoms: _387  and  _388
REMARK  152  A    between atoms: _387  and  _390
REMARK  153  A    between atoms: _390  and  _391
REMARK  154  A    between atoms: _391  and  _392
REMARK  155  A    between atoms: _392  and  _393
REMARK  156  A    between atoms: _393  and  _394
REMARK  157  A    between atoms: _398  and  _400
REMARK  158  A    between atoms: _400  and  _401
REMARK  159  A    between atoms: _400  and  _403
REMARK  160  A    between atoms: _403  and  _404
REMARK  161  A    between atoms: _407  and  _409
REMARK  162  A    between atoms: _409  and  _410
REMARK  163  A    between atoms: _409  and  _412
REMARK  164  A    between atoms: _412  and  _413
REMARK  165  A    between atoms: _418  and  _420
REMARK  166  A    between atoms: _420  and  _421
REMARK  167  A    between atoms: _423  and  _425
REMARK  168  A    between atoms: _425  and  _426
REMARK  169  A    between atoms: _425  and  _428
REMARK  170  A    between atoms: _428  and  _429
REMARK  171  A    between atoms: _429  and  _430
REMARK  172  A    between atoms: _430  and  _431
REMARK  173  A    between atoms: _431  and  _432
REMARK  174  A    between atoms: _436  and  _438
REMARK  175  A    between atoms: _438  and  _439
REMARK  176  A    between atoms: _438  and  _441
REMARK  177  A    between atoms: _441  and  _442
REMARK  178  A    between atoms: _442  and  _443
REMARK  179  A    between atoms: _443  and  _444
REMARK  180  A    between atoms: _453  and  _455
REMARK  181  A    between atoms: _455  and  _456
REMARK  182  A    between atoms: _455  and  _458
REMARK  183  A    between atoms: _458  and  _459
REMARK  184  A    between atoms: _464  and  _465
REMARK  185  A    between atoms: _467  and  _469
REMARK  186  A    between atoms: _469  and  _470
REMARK  187  A    between atoms: _469  and  _472
REMARK  188  A    between atoms: _472  and  _473
REMARK  189  A    between atoms: _473  and  _474
REMARK  190  A    between atoms: _474  and  _475
REMARK  191  A    between atoms: _475  and  _476
REMARK  192  A    between atoms: _480  and  _482
REMARK  193  A    between atoms: _482  and  _483
REMARK  194  A    between atoms: _482  and  _485
REMARK  195  A    between atoms: _485  and  _486
REMARK  196  A    between atoms: _488  and  _490
REMARK  197  A    between atoms: _490  and  _491
REMARK  198  A    between atoms: _490  and  _493
REMARK  199  A    between atoms: _493  and  _494
REMARK  200  A    between atoms: _497  and  _499
REMARK  201  A    between atoms: _499  and  _500
REMARK  202  A    between atoms: _499  and  _502
REMARK  203  A    between atoms: _502  and  _503
REMARK  204  A    between atoms: _503  and  _504
REMARK  205  A    between atoms: _507  and  _509
REMARK  206  A    between atoms: _509  and  _510
REMARK  207  A    between atoms: _513  and  _515
REMARK  208  A    between atoms: _515  and  _516
REMARK  209  A    between atoms: _515  and  _518
REMARK  210  A    between atoms: _518  and  _519
REMARK  211  A    between atoms: _521  and  _523
REMARK  212  A    between atoms: _523  and  _524
REMARK  213  A    between atoms: _526  and  _528
REMARK  214  A    between atoms: _528  and  _529
REMARK  215  A    between atoms: _528  and  _531
REMARK  216  A    between atoms: _531  and  _532
REMARK  217  A    between atoms: _535  and  _537
REMARK  218  A    between atoms: _537  and  _538
REMARK  219  A    between atoms: _540  and  _542
REMARK  220  A    between atoms: _542  and  _543
REMARK  221  A    between atoms: _542  and  _545
REMARK  222  A    between atoms: _545  and  _546
REMARK  223  A    between atoms: _551  and  _553
REMARK  224  A    between atoms: _553  and  _554
REMARK  225  A    between atoms: _553  and  _556
REMARK  226  A    between atoms: _556  and  _557
REMARK  227  A    between atoms: _557  and  _558
REMARK  228  A    between atoms: _565  and  _566
REMARK  229  A    between atoms: _566  and  _582
REMARK  230  A    between atoms: _567  and  _569
REMARK  231  A    between atoms: _569  and  _570
REMARK  232  A    between atoms: _570  and  _571
REMARK  233  A    between atoms: _575  and  _577
REMARK  234  A    between atoms: _577  and  _578
REMARK  235  A    between atoms: _577  and  _585
REMARK  236  A    between atoms: _578  and  _579
REMARK  237  A    between atoms: _579  and  _580
REMARK  238  A    between atoms: _580  and  _581
REMARK  239  A    between atoms: _581  and  _582
REMARK  240  A    between atoms: _587  and  _589
REMARK  241  A    between atoms: _589  and  _590
REMARK  242  A    between atoms: _589  and  _592
REMARK  243  A    between atoms: _592  and  _593
REMARK  244  A    between atoms: _596  and  _598
REMARK  245  A    between atoms: _598  and  _599
REMARK  246  A    between atoms: _601  and  _603
REMARK  247  A    between atoms: _603  and  _604
REMARK  248  A    between atoms: _607  and  _609
REMARK  249  A    between atoms: _609  and  _610
REMARK  250  A    between atoms: _609  and  _612
REMARK  251  A    between atoms: _612  and  _613
REMARK  252  A    between atoms: _618  and  _619
REMARK                            x       y       z     vdW  Elec       q    Type
REMARK                         _______ _______ _______ _____ _____    ______ ____
ROOT
ATOM      1  CG  TYR A   1      33.385  11.348  36.339  0.00  0.00    -0.020 A 
ATOM      2  CD2 TYR A   1      32.969  12.675  36.440  0.00  0.00    -0.001 A 
ATOM      3  CE2 TYR A   1      33.004  13.526  35.332  0.00  0.00    +0.036 A 
ATOM      4  CZ  TYR A   1      33.449  13.042  34.114  0.00  0.00    +0.134 A 
ATOM      5  CE1 TYR A   1      33.861  11.728  33.988  0.00  0.00    +0.036 A 
ATOM      6  CD1 TYR A   1      33.833  10.890  35.098  0.00  0.00    -0.001 A 
ENDROOT
BRANCH   4   7
ATOM      7  OH  TYR A   1      33.482  13.872  33.012  0.00  0.00    -0.506 OA
ATOM      8  HH  TYR A   1      33.824  13.368  32.231  0.00  0.00    +0.292 HD
ENDBRANCH   4   7
BRANCH   1   9
ATOM      9  CB  TYR A   1      33.359  10.431  37.536  0.00  0.00    +0.051 C 
BRANCH   9  10
ATOM     10  CA  TYR A   1      34.693  10.366  38.287  0.00  0.00    +0.137 C 
BRANCH  10  11
ATOM     11  N   TYR A   1      34.728   9.203  39.156  0.00  0.00    -0.239 NA
ATOM     12  H   TYR A   1      33.883   8.967  39.715  0.00  0.00    +0.142 HD
ENDBRANCH  10  11
BRANCH  10  13
ATOM     13  C   TYR A   1      34.905  11.618  39.130  0.00  0.00    +0.224 C 
ATOM     14  O   TYR A   1      34.010  12.033  39.865  0.00  0.00    -0.287 OA
ENDBRANCH  10  13
ENDBRANCH   9  10
ENDBRANCH   1   9
TORSDOF 5
REMARK  Name = ../refined-set-2016/2qrh/2qrh_pocket.pdb
REMARK  252 active torsions:
REMARK  status: ('A' for Active; 'I' for Inactive)
REMARK    1  A    between atoms: _1  and  _3
REMARK    2  A    between atoms: _3  and  _4
REMARK    3  A    between atoms: _3  and  _6
REMARK    4  A    between atoms: _6  and  _7
REMARK    5  A    between atoms: _12  and  _13
REMARK    6  A    between atoms: _15  and  _17
REMARK    7  A    between atoms: _17  and  _18
REMARK    8  A    between atoms: _17  and  _20
REMARK    9  A    between atoms: _20  and  _21
REMARK   10  A    between atoms: _21  and  _22
REMARK   11  A    between atoms: _25  and  _27
REMARK   12  A    between atoms: _27  and  _28
REMARK   13  A    between atoms: _30  and  _32
REMARK   14  A    between atoms: _32  and  _33
REMARK   15  A    between atoms: _32  and  _35
REMARK   16  A    between atoms: _35  and  _36
REMARK   17  A    between atoms: _41  and  _43
REMARK   18  A    between atoms: _43  and  _44
REMARK   19  A    between atoms: _46  and  _48
REMARK   20  A    between atoms: _48  and  _49
REMARK   21  A    between atoms: _51  and  _53
REMARK   22  A    between atoms: _53  and  _54
REMARK   23  A    between atoms: _53  and  _56
REMARK   24  A    between atoms: _56  and  _57
REMARK   25  A    between atoms: _60  and  _62
REMARK   26  A    between atoms: _62  and  _63
REMARK   27  A    between atoms: _65  and  _67
REMARK   28  A    between atoms: _67  and  _68
REMARK   29  A    between atoms: _67  and  _70
REMARK   30  A    between atoms: _70  and  _71
REMARK   31  A    between atoms: _71  and  _72
REMARK   32  A    between atoms: _72  and  _73
REMARK   33  A    between atoms: _82  and  _84
REMARK   34  A    between atoms: _84  and  _85
REMARK   35  A    between atoms: _84  and  _87
REMARK   36  A    between atoms: _87  and  _88
REMARK   37  A    between atoms: _91  and  _93
REMARK   38  A    between atoms: _93  and  _94
REMARK   39  A    between atoms: _97  and  _99
REMARK   40  A    between atoms: _99  and  _100
REMARK   41  A    between atoms: _99  and  _102
REMARK   42  A    between atoms: _102  and  _103
REMARK   43  A    between atoms: _109  and  _111
REMARK   44  A    between atoms: _111  and  _112
REMARK   45  A    between atoms: _111  and  _114
REMARK   46  A    between atoms: _114  and  _115
REMARK   47  A    between atoms: _120  and  _121
REMARK   48  A    between atoms: _124  and  _125
REMARK   49  A    between atoms: _130  and  _132
REMARK   50  A    between atoms: _132  and  _133
REMARK   51  A    between atoms: _132  and  _135
REMARK   52  A    between atoms: _135  and  _136
REMARK   53  A    between atoms: _141  and  _143
REMARK   54  A    between atoms: _143  and  _144
REMARK   55  A    between atoms: _143  and  _146
REMARK   56  A    between atoms: _146  and  _147
REMARK   57  A    between atoms: _150  and  _152
REMARK   58  A    between atoms: _152  and  _153
REMARK   59  A    between atoms: _152  and  _155
REMARK   60  A    between atoms: _155  and  _156
REMARK   61  A    between atoms: _161  and  _163
REMARK   62  A    between atoms: _163  and  _164
REMARK   63  A    between atoms: _163  and  _166
REMARK   64  A    between atoms: _166  and  _167
REMARK   65  A    between atoms: _173  and  _175
REMARK   66  A    between atoms: _175  and  _176
REMARK   67  A    between atoms: _175  and  _178
REMARK   68  A    between atoms: _178  and  _179
REMARK   69  A    between atoms: _185  and  _187
REMARK   70  A    between atoms: _187  and  _188
REMARK   71  A    between atoms: _187  and  _190
REMARK   72  A    between atoms: _190  and  _191
REMARK   73  A    between atoms: _191  and  _192
REMARK   74  A    between atoms: _195  and  _197
REMARK   75  A    between atoms: _197  and  _198
REMARK   76  A    between atoms: _197  and  _200
REMARK   77  A    between atoms: _200  and  _201
REMARK   78  A    between atoms: _201  and  _202
REMARK   79  A    between atoms: _202  and  _203
REMARK   80  A    between atoms: _212  and  _214
REMARK   81  A    between atoms: _214  and  _215
REMARK   82  A    between atoms: _214  and  _217
REMARK   83  A    between atoms: _217  and  _218
REMARK   84  A    between atoms: _223  and  _225
REMARK   85  A    between atoms: _225  and  _226
REMARK   86  A    between atoms: _225  and  _228
REMARK   87  A    between atoms: _228  and  _229
REMARK   88  A    between atoms: _232  and  _234
REMARK   89  A    between atoms: _234  and  _235
REMARK   90  A    between atoms: _234  and  _237
REMARK   91  A    between atoms: _237  and  _238
REMARK   92  A    between atoms: _241  and  _243
REMARK   93  A    between atoms: _243  and  _244
REMARK   94  A    between atoms: _243  and  _246
REMARK   95  A    between atoms: _246  and  _247
REMARK   96  A    between atoms: _252  and  _254
REMARK   97  A    between atoms: _254  and  _255
REMARK   98  A    between atoms: _254  and  _257
REMARK   99  A    between atoms: _257  and  _258
REMARK  100  A    between atoms: _261  and  _263
REMARK  101  A    between atoms: _263  and  _264
REMARK  102  A    between atoms: _263  and  _266
REMARK  103  A    between atoms: _266  and  _267
REMARK  104  A    between atoms: _272  and  _274
REMARK  105  A    between atoms: _274  and  _275
REMARK  106  A    between atoms: _274  and  _277
REMARK  107  A    between atoms: _277  and  _278
REMARK  108  A    between atoms: _283  and  _285
REMARK  109  A    between atoms: _285  and  _286
REMARK  110  A    between atoms: _285  and  _288
REMARK  111  A    between atoms: _288  and  _289
REMARK  112  A    between atoms: _292  and  _294
REMARK  113  A    between atoms: _294  and  _295
REMARK  114  A    between atoms: _294  and  _297
REMARK  115  A    between atoms: _300  and  _302
REMARK  116  A    between atoms: _302  and  _303
REMARK  117  A    between atoms: _302  and  _305
REMARK  118  A    between atoms: _305  and  _306
REMARK  119  A    between atoms: _309  and  _311
REMARK  120  A    between atoms: _311  and  _312
REMARK  121  A    between atoms: _311  and  _314
REMARK  122  A    between atoms: _314  and  _315
REMARK  123  A    between atoms: _315  and  _316
REMARK  124  A    between atoms: _319  and  _321
REMARK  125  A    between atoms: _321  and  _322
REMARK  126  A    between atoms: _325  and  _327
REMARK  127  A    between atoms: _327  and  _328
REMARK  128  A    between atoms: _327  and  _330
REMARK  129  A    between atoms: _330  and  _331
REMARK  130  A    between atoms: _334  and  _336
REMARK  131  A    between atoms: _336  and  _337
REMARK  132  A    between atoms: _336  and  _339
REMARK  133  A    between atoms: _339  and  _340
REMARK  134  A    between atoms: _340  and  _341
REMARK  135  A    between atoms: _344  and  _346
REMARK  136  A    between atoms: _346  and  _347
REMARK  137  A    between atoms: _346  and  _349
REMARK  138  A    between atoms: _349  and  _350
REMARK  139  A    between atoms: _355  and  _357
REMARK  140  A    between atoms: _357  and  _358
REMARK  141  A    between atoms: _360  and  _362
REMARK  142  A    between atoms: _362  and  _363
REMARK  143  A    between atoms: _362  and  _365
REMARK  144  A    between atoms: _368  and  _370
REMARK  145  A    between atoms: _370  and  _371
REMARK  146  A    between atoms: _374  and  _376
REMARK  147  A    between atoms: _376  and  _377
REMARK  148  A    between atoms: _376  and  _379
REMARK  149  A    between atoms: _379  and  _380
REMARK  150  A    between atoms: _385  and  _387
REMARK  151  A    between atoms: _387  and  _388
REMARK  152  A    between atoms: _387  and  _390
REMARK  153  A    between atoms: _390  and  _391
REMARK  154  A    between atoms: _391  and  _392
REMARK  155  A    between atoms: _392  and  _393
REMARK  156  A    between atoms: _393  and  _394
REMARK  157  A    between atoms: _398  and  _400
REMARK  158  A    between atoms: _400  and  _401
REMARK  159  A    between atoms: _400  and  _403
REMARK  160  A    between atoms: _403  and  _404
REMARK  161  A    between atoms: _407  and  _409
REMARK  162  A    between atoms: _409  and  _410
REMARK  163  A    between atoms: _409  and  _412
REMARK  164  A    between atoms: _412  and  _413
REMARK  165  A    between atoms: _418  and  _420
REMARK  166  A    between atoms: _420  and  _421
REMARK  167  A    between atoms: _423  and  _425
REMARK  168  A    between atoms: _425  and  _426
REMARK  169  A    between atoms: _425  and  _428
REMARK  170  A    between atoms: _428  and  _429
REMARK  171  A    between atoms: _429  and  _430
REMARK  172  A    between atoms: _430  and  _431
REMARK  173  A    between atoms: _431  and  _432
REMARK  174  A    between atoms: _436  and  _438
REMARK  175  A    between atoms: _438  and  _439
REMARK  176  A    between atoms: _438  and  _441
REMARK  177  A    between atoms: _441  and  _442
REMARK  178  A    between atoms: _442  and  _443
REMARK  179  A    between atoms: _443  and  _444
REMARK  180  A    between atoms: _453  and  _455
REMARK  181  A    between atoms: _455  and  _456
REMARK  182  A    between atoms: _455  and  _458
REMARK  183  A    between atoms: _458  and  _459
REMARK  184  A    between atoms: _464  and  _465
REMARK  185  A    between atoms: _467  and  _469
REMARK  186  A    between atoms: _469  and  _470
REMARK  187  A    between atoms: _469  and  _472
REMARK  188  A    between atoms: _472  and  _473
REMARK  189  A    between atoms: _473  and  _474
REMARK  190  A    between atoms: _474  and  _475
REMARK  191  A    between atoms: _475  and  _476
REMARK  192  A    between atoms: _480  and  _482
REMARK  193  A    between atoms: _482  and  _483
REMARK  194  A    between atoms: _482  and  _485
REMARK  195  A    between atoms: _485  and  _486
REMARK  196  A    between atoms: _488  and  _490
REMARK  197  A    between atoms: _490  and  _491
REMARK  198  A    between atoms: _490  and  _493
REMARK  199  A    between atoms: _493  and  _494
REMARK  200  A    between atoms: _497  and  _499
REMARK  201  A    between atoms: _499  and  _500
REMARK  202  A    between atoms: _499  and  _502
REMARK  203  A    between atoms: _502  and  _503
REMARK  204  A    between atoms: _503  and  _504
REMARK  205  A    between atoms: _507  and  _509
REMARK  206  A    between atoms: _509  and  _510
REMARK  207  A    between atoms: _513  and  _515
REMARK  208  A    between atoms: _515  and  _516
REMARK  209  A    between atoms: _515  and  _518
REMARK  210  A    between atoms: _518  and  _519
REMARK  211  A    between atoms: _521  and  _523
REMARK  212  A    between atoms: _523  and  _524
REMARK  213  A    between atoms: _526  and  _528
REMARK  214  A    between atoms: _528  and  _529
REMARK  215  A    between atoms: _528  and  _531
REMARK  216  A    between atoms: _531  and  _532
REMARK  217  A    between atoms: _535  and  _537
REMARK  218  A    between atoms: _537  and  _538
REMARK  219  A    between atoms: _540  and  _542
REMARK  220  A    between atoms: _542  and  _543
REMARK  221  A    between atoms: _542  and  _545
REMARK  222  A    between atoms: _545  and  _546
REMARK  223  A    between atoms: _551  and  _553
REMARK  224  A    between atoms: _553  and  _554
REMARK  225  A    between atoms: _553  and  _556
REMARK  226  A    between atoms: _556  and  _557
REMARK  227  A    between atoms: _557  and  _558
REMARK  228  A    between atoms: _565  and  _566
REMARK  229  A    between atoms: _566  and  _582
REMARK  230  A    between atoms: _567  and  _569
REMARK  231  A    between atoms: _569  and  _570
REMARK  232  A    between atoms: _570  and  _571
REMARK  233  A    between atoms: _575  and  _577
REMARK  234  A    between atoms: _577  and  _578
REMARK  235  A    between atoms: _577  and  _585
REMARK  236  A    between atoms: _578  and  _579
REMARK  237  A    between atoms: _579  and  _580
REMARK  238  A    between atoms: _580  and  _581
REMARK  239  A    between atoms: _581  and  _582
REMARK  240  A    between atoms: _587  and  _589
REMARK  241  A    between atoms: _589  and  _590
REMARK  242  A    between atoms: _589  and  _592
REMARK  243  A    between atoms: _592  and  _593
REMARK  244  A    between atoms: _596  and  _598
REMARK  245  A    between atoms: _598  and  _599
REMARK  246  A    between atoms: _601  and  _603
REMARK  247  A    between atoms: _603  and  _604
REMARK  248  A    between atoms: _607  and  _609
REMARK  249  A    between atoms: _609  and  _610
REMARK  250  A    between atoms: _609  and  _612
REMARK  251  A    between atoms: _612  and  _613
REMARK  252  A    between atoms: _618  and  _619
REMARK                            x       y       z     vdW  Elec       q    Type
REMARK                         _______ _______ _______ _____ _____    ______ ____
ROOT
ATOM      1  CA  GLU A   1      31.721  20.746  38.836  0.00  0.00    +0.134 C 
ENDROOT
BRANCH   1   2
ATOM      2  N   GLU A   1      33.043  20.270  39.231  0.00  0.00    -0.239 NA
ATOM      3  H   GLU A   1      33.474  19.487  38.699  0.00  0.00    +0.142 HD
ENDBRANCH   1   2
BRANCH   1   4
ATOM      4  C   GLU A   1      30.743  19.613  38.537  0.00  0.00    +0.224 C 
ATOM      5  O   GLU A   1      31.073  18.674  37.816  0.00  0.00    -0.287 OA
ENDBRANCH   1   4
BRANCH   1   6
ATOM      6  CB  GLU A   1      31.824  21.668  37.619  0.00  0.00    +0.037 C 
BRANCH   6   7
ATOM      7  CG  GLU A   1      32.598  22.950  37.881  0.00  0.00    +0.116 C 
BRANCH   7   8
ATOM      8  CD  GLU A   1      32.555  23.922  36.720  0.00  0.00    +0.365 C 
ATOM      9  OE2 GLU A   1      33.489  24.742  36.617  0.00  0.00    -0.246 OA
ATOM     10  OE1 GLU A   1      31.598  23.878  35.917  0.00  0.00    -0.246 OA
ENDBRANCH   7   8
ENDBRANCH   6   7
ENDBRANCH   1   6
TORSDOF 5
REMARK  Name = ../refined-set-2016/2qrh/2qrh_pocket.pdb
REMARK  252 active torsions:
REMARK  status: ('A' for Active; 'I' for Inactive)
REMARK    1  A    between atoms: _1  and  _3
REMARK    2  A    between atoms: _3  and  _4
REMARK    3  A    between atoms: _3  and  _6
REMARK    4  A    between atoms: _6  and  _7
REMARK    5  A    between atoms: _12  and  _13
REMARK    6  A    between atoms: _15  and  _17
REMARK    7  A    between atoms: _17  and  _18
REMARK    8  A    between atoms: _17  and  _20
REMARK    9  A    between atoms: _20  and  _21
REMARK   10  A    between atoms: _21  and  _22
REMARK   11  A    between atoms: _25  and  _27
REMARK   12  A    between atoms: _27  and  _28
REMARK   13  A    between atoms: _30  and  _32
REMARK   14  A    between atoms: _32  and  _33
REMARK   15  A    between atoms: _32  and  _35
REMARK   16  A    between atoms: _35  and  _36
REMARK   17  A    between atoms: _41  and  _43
REMARK   18  A    between atoms: _43  and  _44
REMARK   19  A    between atoms: _46  and  _48
REMARK   20  A    between atoms: _48  and  _49
REMARK   21  A    between atoms: _51  and  _53
REMARK   22  A    between atoms: _53  and  _54
REMARK   23  A    between atoms: _53  and  _56
REMARK   24  A    between atoms: _56  and  _57
REMARK   25  A    between atoms: _60  and  _62
REMARK   26  A    between atoms: _62  and  _63
REMARK   27  A    between atoms: _65  and  _67
REMARK   28  A    between atoms: _67  and  _68
REMARK   29  A    between atoms: _67  and  _70
REMARK   30  A    between atoms: _70  and  _71
REMARK   31  A    between atoms: _71  and  _72
REMARK   32  A    between atoms: _72  and  _73
REMARK   33  A    between atoms: _82  and  _84
REMARK   34  A    between atoms: _84  and  _85
REMARK   35  A    between atoms: _84  and  _87
REMARK   36  A    between atoms: _87  and  _88
REMARK   37  A    between atoms: _91  and  _93
REMARK   38  A    between atoms: _93  and  _94
REMARK   39  A    between atoms: _97  and  _99
REMARK   40  A    between atoms: _99  and  _100
REMARK   41  A    between atoms: _99  and  _102
REMARK   42  A    between atoms: _102  and  _103
REMARK   43  A    between atoms: _109  and  _111
REMARK   44  A    between atoms: _111  and  _112
REMARK   45  A    between atoms: _111  and  _114
REMARK   46  A    between atoms: _114  and  _115
REMARK   47  A    between atoms: _120  and  _121
REMARK   48  A    between atoms: _124  and  _125
REMARK   49  A    between atoms: _130  and  _132
REMARK   50  A    between atoms: _132  and  _133
REMARK   51  A    between atoms: _132  and  _135
REMARK   52  A    between atoms: _135  and  _136
REMARK   53  A    between atoms: _141  and  _143
REMARK   54  A    between atoms: _143  and  _144
REMARK   55  A    between atoms: _143  and  _146
REMARK   56  A    between atoms: _146  and  _147
REMARK   57  A    between atoms: _150  and  _152
REMARK   58  A    between atoms: _152  and  _153
REMARK   59  A    between atoms: _152  and  _155
REMARK   60  A    between atoms: _155  and  _156
REMARK   61  A    between atoms: _161  and  _163
REMARK   62  A    between atoms: _163  and  _164
REMARK   63  A    between atoms: _163  and  _166
REMARK   64  A    between atoms: _166  and  _167
REMARK   65  A    between atoms: _173  and  _175
REMARK   66  A    between atoms: _175  and  _176
REMARK   67  A    between atoms: _175  and  _178
REMARK   68  A    between atoms: _178  and  _179
REMARK   69  A    between atoms: _185  and  _187
REMARK   70  A    between atoms: _187  and  _188
REMARK   71  A    between atoms: _187  and  _190
REMARK   72  A    between atoms: _190  and  _191
REMARK   73  A    between atoms: _191  and  _192
REMARK   74  A    between atoms: _195  and  _197
REMARK   75  A    between atoms: _197  and  _198
REMARK   76  A    between atoms: _197  and  _200
REMARK   77  A    between atoms: _200  and  _201
REMARK   78  A    between atoms: _201  and  _202
REMARK   79  A    between atoms: _202  and  _203
REMARK   80  A    between atoms: _212  and  _214
REMARK   81  A    between atoms: _214  and  _215
REMARK   82  A    between atoms: _214  and  _217
REMARK   83  A    between atoms: _217  and  _218
REMARK   84  A    between atoms: _223  and  _225
REMARK   85  A    between atoms: _225  and  _226
REMARK   86  A    between atoms: _225  and  _228
REMARK   87  A    between atoms: _228  and  _229
REMARK   88  A    between atoms: _232  and  _234
REMARK   89  A    between atoms: _234  and  _235
REMARK   90  A    between atoms: _234  and  _237
REMARK   91  A    between atoms: _237  and  _238
REMARK   92  A    between atoms: _241  and  _243
REMARK   93  A    between atoms: _243  and  _244
REMARK   94  A    between atoms: _243  and  _246
REMARK   95  A    between atoms: _246  and  _247
REMARK   96  A    between atoms: _252  and  _254
REMARK   97  A    between atoms: _254  and  _255
REMARK   98  A    between atoms: _254  and  _257
REMARK   99  A    between atoms: _257  and  _258
REMARK  100  A    between atoms: _261  and  _263
REMARK  101  A    between atoms: _263  and  _264
REMARK  102  A    between atoms: _263  and  _266
REMARK  103  A    between atoms: _266  and  _267
REMARK  104  A    between atoms: _272  and  _274
REMARK  105  A    between atoms: _274  and  _275
REMARK  106  A    between atoms: _274  and  _277
REMARK  107  A    between atoms: _277  and  _278
REMARK  108  A    between atoms: _283  and  _285
REMARK  109  A    between atoms: _285  and  _286
REMARK  110  A    between atoms: _285  and  _288
REMARK  111  A    between atoms: _288  and  _289
REMARK  112  A    between atoms: _292  and  _294
REMARK  113  A    between atoms: _294  and  _295
REMARK  114  A    between atoms: _294  and  _297
REMARK  115  A    between atoms: _300  and  _302
REMARK  116  A    between atoms: _302  and  _303
REMARK  117  A    between atoms: _302  and  _305
REMARK  118  A    between atoms: _305  and  _306
REMARK  119  A    between atoms: _309  and  _311
REMARK  120  A    between atoms: _311  and  _312
REMARK  121  A    between atoms: _311  and  _314
REMARK  122  A    between atoms: _314  and  _315
REMARK  123  A    between atoms: _315  and  _316
REMARK  124  A    between atoms: _319  and  _321
REMARK  125  A    between atoms: _321  and  _322
REMARK  126  A    between atoms: _325  and  _327
REMARK  127  A    between atoms: _327  and  _328
REMARK  128  A    between atoms: _327  and  _330
REMARK  129  A    between atoms: _330  and  _331
REMARK  130  A    between atoms: _334  and  _336
REMARK  131  A    between atoms: _336  and  _337
REMARK  132  A    between atoms: _336  and  _339
REMARK  133  A    between atoms: _339  and  _340
REMARK  134  A    between atoms: _340  and  _341
REMARK  135  A    between atoms: _344  and  _346
REMARK  136  A    between atoms: _346  and  _347
REMARK  137  A    between atoms: _346  and  _349
REMARK  138  A    between atoms: _349  and  _350
REMARK  139  A    between atoms: _355  and  _357
REMARK  140  A    between atoms: _357  and  _358
REMARK  141  A    between atoms: _360  and  _362
REMARK  142  A    between atoms: _362  and  _363
REMARK  143  A    between atoms: _362  and  _365
REMARK  144  A    between atoms: _368  and  _370
REMARK  145  A    between atoms: _370  and  _371
REMARK  146  A    between atoms: _374  and  _376
REMARK  147  A    between atoms: _376  and  _377
REMARK  148  A    between atoms: _376  and  _379
REMARK  149  A    between atoms: _379  and  _380
REMARK  150  A    between atoms: _385  and  _387
REMARK  151  A    between atoms: _387  and  _388
REMARK  152  A    between atoms: _387  and  _390
REMARK  153  A    between atoms: _390  and  _391
REMARK  154  A    between atoms: _391  and  _392
REMARK  155  A    between atoms: _392  and  _393
REMARK  156  A    between atoms: _393  and  _394
REMARK  157  A    between atoms: _398  and  _400
REMARK  158  A    between atoms: _400  and  _401
REMARK  159  A    between atoms: _400  and  _403
REMARK  160  A    between atoms: _403  and  _404
REMARK  161  A    between atoms: _407  and  _409
REMARK  162  A    between atoms: _409  and  _410
REMARK  163  A    between atoms: _409  and  _412
REMARK  164  A    between atoms: _412  and  _413
REMARK  165  A    between atoms: _418  and  _420
REMARK  166  A    between atoms: _420  and  _421
REMARK  167  A    between atoms: _423  and  _425
REMARK  168  A    between atoms: _425  and  _426
REMARK  169  A    between atoms: _425  and  _428
REMARK  170  A    between atoms: _428  and  _429
REMARK  171  A    between atoms: _429  and  _430
REMARK  172  A    between atoms: _430  and  _431
REMARK  173  A    between atoms: _431  and  _432
REMARK  174  A    between atoms: _436  and  _438
REMARK  175  A    between atoms: _438  and  _439
REMARK  176  A    between atoms: _438  and  _441
REMARK  177  A    between atoms: _441  and  _442
REMARK  178  A    between atoms: _442  and  _443
REMARK  179  A    between atoms: _443  and  _444
REMARK  180  A    between atoms: _453  and  _455
REMARK  181  A    between atoms: _455  and  _456
REMARK  182  A    between atoms: _455  and  _458
REMARK  183  A    between atoms: _458  and  _459
REMARK  184  A    between atoms: _464  and  _465
REMARK  185  A    between atoms: _467  and  _469
REMARK  186  A    between atoms: _469  and  _470
REMARK  187  A    between atoms: _469  and  _472
REMARK  188  A    between atoms: _472  and  _473
REMARK  189  A    between atoms: _473  and  _474
REMARK  190  A    between atoms: _474  and  _475
REMARK  191  A    between atoms: _475  and  _476
REMARK  192  A    between atoms: _480  and  _482
REMARK  193  A    between atoms: _482  and  _483
REMARK  194  A    between atoms: _482  and  _485
REMARK  195  A    between atoms: _485  and  _486
REMARK  196  A    between atoms: _488  and  _490
REMARK  197  A    between atoms: _490  and  _491
REMARK  198  A    between atoms: _490  and  _493
REMARK  199  A    between atoms: _493  and  _494
REMARK  200  A    between atoms: _497  and  _499
REMARK  201  A    between atoms: _499  and  _500
REMARK  202  A    between atoms: _499  and  _502
REMARK  203  A    between atoms: _502  and  _503
REMARK  204  A    between atoms: _503  and  _504
REMARK  205  A    between atoms: _507  and  _509
REMARK  206  A    between atoms: _509  and  _510
REMARK  207  A    between atoms: _513  and  _515
REMARK  208  A    between atoms: _515  and  _516
REMARK  209  A    between atoms: _515  and  _518
REMARK  210  A    between atoms: _518  and  _519
REMARK  211  A    between atoms: _521  and  _523
REMARK  212  A    between atoms: _523  and  _524
REMARK  213  A    between atoms: _526  and  _528
REMARK  214  A    between atoms: _528  and  _529
REMARK  215  A    between atoms: _528  and  _531
REMARK  216  A    between atoms: _531  and  _532
REMARK  217  A    between atoms: _535  and  _537
REMARK  218  A    between atoms: _537  and  _538
REMARK  219  A    between atoms: _540  and  _542
REMARK  220  A    between atoms: _542  and  _543
REMARK  221  A    between atoms: _542  and  _545
REMARK  222  A    between atoms: _545  and  _546
REMARK  223  A    between atoms: _551  and  _553
REMARK  224  A    between atoms: _553  and  _554
REMARK  225  A    between atoms: _553  and  _556
REMARK  226  A    between atoms: _556  and  _557
REMARK  227  A    between atoms: _557  and  _558
REMARK  228  A    between atoms: _565  and  _566
REMARK  229  A    between atoms: _566  and  _582
REMARK  230  A    between atoms: _567  and  _569
REMARK  231  A    between atoms: _569  and  _570
REMARK  232  A    between atoms: _570  and  _571
REMARK  233  A    between atoms: _575  and  _577
REMARK  234  A    between atoms: _577  and  _578
REMARK  235  A    between atoms: _577  and  _585
REMARK  236  A    between atoms: _578  and  _579
REMARK  237  A    between atoms: _579  and  _580
REMARK  238  A    between atoms: _580  and  _581
REMARK  239  A    between atoms: _581  and  _582
REMARK  240  A    between atoms: _587  and  _589
REMARK  241  A    between atoms: _589  and  _590
REMARK  242  A    between atoms: _589  and  _592
REMARK  243  A    between atoms: _592  and  _593
REMARK  244  A    between atoms: _596  and  _598
REMARK  245  A    between atoms: _598  and  _599
REMARK  246  A    between atoms: _601  and  _603
REMARK  247  A    between atoms: _603  and  _604
REMARK  248  A    between atoms: _607  and  _609
REMARK  249  A    between atoms: _609  and  _610
REMARK  250  A    between atoms: _609  and  _612
REMARK  251  A    between atoms: _612  and  _613
REMARK  252  A    between atoms: _618  and  _619
REMARK                            x       y       z     vdW  Elec       q    Type
REMARK                         _______ _______ _______ _____ _____    ______ ____
ROOT
ATOM      1  C   LEU A   5      31.006  20.178  32.870  0.00  0.00    +0.241 C 
ATOM      2  N   GLY A   6      30.353  21.019  33.668  0.00  0.00    -0.295 N 
ATOM      3  H   GLY A   6      30.384  22.038  33.461  0.00  0.00    +0.150 HD
ATOM      4  O   LEU A   5      31.043  18.957  33.058  0.00  0.00    -0.273 OA
ENDROOT
BRANCH   1   5
ATOM      5  CA  LEU A   5      31.729  20.804  31.675  0.00  0.00    +0.149 C 
BRANCH   5   7
ATOM      6  C   GLY A   4      29.749  21.400  30.358  0.00  0.00    +0.243 C 
ATOM      7  N   LEU A   5      30.862  21.773  30.988  0.00  0.00    -0.297 N 
ATOM      8  H   LEU A   5      31.125  22.779  30.994  0.00  0.00    +0.150 HD
ATOM      9  O   GLY A   4      29.347  20.231  30.338  0.00  0.00    -0.273 OA
BRANCH   6  10
ATOM     10  CA  GLY A   4      28.972  22.490  29.638  0.00  0.00    +0.176 C 
BRANCH  10  13
ATOM     11  C   GLY A   3      28.168  23.844  31.530  0.00  0.00    +0.243 C 
ATOM     12  O   GLY A   3      27.867  22.870  32.218  0.00  0.00    -0.273 OA
ATOM     13  N   GLY A   4      28.783  23.761  30.352  0.00  0.00    -0.295 N 
ATOM     14  H   GLY A   4      29.146  24.634  29.918  0.00  0.00    +0.150 HD
BRANCH  11  15
ATOM     15  CA  GLY A   3      27.871  25.236  32.023  0.00  0.00    +0.176 C 
BRANCH  15  18
ATOM     16  C   ASN A   2      28.516  26.673  33.872  0.00  0.00    +0.241 C 
ATOM     17  O   ASN A   2      27.920  27.638  33.394  0.00  0.00    -0.273 OA
ATOM     18  N   GLY A   3      28.509  25.469  33.313  0.00  0.00    -0.295 N 
ATOM     19  H   GLY A   3      28.968  24.676  33.805  0.00  0.00    +0.150 HD
BRANCH  16  20
ATOM     20  CA  ASN A   2      29.331  26.814  35.151  0.00  0.00    +0.158 C 
BRANCH  20  23
ATOM     21  C   GLY A   1      28.500  25.353  36.934  0.00  0.00    +0.240 C 
ATOM     22  O   GLY A   1      27.546  26.090  37.194  0.00  0.00    -0.274 OA
ATOM     23  N   ASN A   2      29.373  25.599  35.961  0.00  0.00    -0.297 N 
ATOM     24  H   ASN A   2      30.116  24.897  35.769  0.00  0.00    +0.150 HD
BRANCH  21  25
ATOM     25  CA  GLY A   1      28.734  24.082  37.726  0.00  0.00    +0.169 C 
BRANCH  25  26
ATOM     26  N   GLY A   1      27.902  24.034  38.930  0.00  0.00    -0.236 NA
ATOM     27  H   GLY A   1      27.048  24.626  38.974  0.00  0.00    +0.142 HD
ENDBRANCH  25  26
ENDBRANCH  21  25
ENDBRANCH  20  23
BRANCH  20  28
ATOM     28  CB  ASN A   2      30.750  27.231  34.789  0.00  0.00    +0.114 C 
BRANCH  28  29
ATOM     29  CG  ASN A   2      31.408  28.018  35.884  0.00  0.00    +0.222 C 
ATOM     30  ND2 ASN A   2      32.350  27.393  36.586  0.00  0.00    -0.329 N 
ATOM     31 HD21 ASN A   2      32.831  27.886  37.365  0.00  0.00    +0.145 HD
ATOM     32 HD22 ASN A   2      32.605  26.411  36.356  0.00  0.00    +0.145 HD
ATOM     33  OD1 ASN A   2      31.063  29.179  36.109  0.00  0.00    -0.275 OA
ENDBRANCH  28  29
ENDBRANCH  20  28
ENDBRANCH  16  20
ENDBRANCH  15  18
ENDBRANCH  11  15
ENDBRANCH  10  13
ENDBRANCH   6  10
ENDBRANCH   5   7
BRANCH   5  34
ATOM     34  CB  LEU A   5      33.059  21.458  32.105  0.00  0.00    +0.029 C 
BRANCH  34  35
ATOM     35  CG  LEU A   5      34.108  20.637  32.876  0.00  0.00    +0.002 C 
ATOM     36  CD2 LEU A   5      33.841  20.644  34.372  0.00  0.00    +0.000 C 
ATOM     37  CD1 LEU A   5      35.530  21.143  32.613  0.00  0.00    +0.000 C 
ENDBRANCH  34  35
ENDBRANCH   5  34
ENDBRANCH   1   5
BRANCH   2  38
ATOM     38  CA  GLY A   6      29.595  20.554  34.824  0.00  0.00    +0.176 C 
BRANCH  38  39
ATOM     39  C   GLY A   6      28.369  19.752  34.425  0.00  0.00    +0.243 C 
ATOM     40  O   GLY A   6      28.006  18.781  35.091  0.00  0.00    -0.273 OA
ATOM     41  N   ARG A   7      27.727  20.155  33.335  0.00  0.00    -0.297 N 
ATOM     42  H   ARG A   7      28.078  20.977  32.803  0.00  0.00    +0.150 HD
BRANCH  41  43
ATOM     43  CA  ARG A   7      26.529  19.452  32.876  0.00  0.00    +0.149 C 
BRANCH  43  44
ATOM     44  C   ARG A   7      26.883  18.100  32.249  0.00  0.00    +0.241 C 
ATOM     45  O   ARG A   7      26.123  17.139  32.388  0.00  0.00    -0.273 OA
ATOM     46  N   LEU A   8      28.044  18.019  31.596  0.00  0.00    -0.297 N 
ATOM     47  H   LEU A   8      28.601  18.884  31.444  0.00  0.00    +0.150 HD
BRANCH  46  48
ATOM     48  CA  LEU A   8      28.558  16.739  31.085  0.00  0.00    +0.149 C 
BRANCH  48  49
ATOM     49  C   LEU A   8      28.731  15.728  32.219  0.00  0.00    +0.241 C 
ATOM     50  N   ALA A   9      29.308  16.177  33.336  0.00  0.00    -0.298 N 
ATOM     51  H   ALA A   9      29.653  17.158  33.368  0.00  0.00    +0.150 HD
ATOM     52  O   LEU A   8      28.343  14.569  32.089  0.00  0.00    -0.273 OA
BRANCH  50  53
ATOM     53  CA  ALA A   9      29.468  15.331  34.512  0.00  0.00    +0.137 C 
ATOM     54  CB  ALA A   9      30.149  16.106  35.640  0.00  0.00    +0.030 C 
BRANCH  53  55
ATOM     55  C   ALA A   9      28.113  14.786  34.975  0.00  0.00    +0.227 C 
ATOM     56  O   ALA A   9      28.002  13.613  35.323  0.00  0.00    -0.286 OA
ENDBRANCH  53  55
ENDBRANCH  50  53
ENDBRANCH  48  49
BRANCH  48  57
ATOM     57  CB  LEU A   8      29.885  16.918  30.331  0.00  0.00    +0.029 C 
BRANCH  57  58
ATOM     58  CG  LEU A   8      30.392  15.676  29.575  0.00  0.00    +0.002 C 
ATOM     59  CD2 LEU A   8      31.880  15.775  29.283  0.00  0.00    +0.000 C 
ATOM     60  CD1 LEU A   8      29.602  15.460  28.281  0.00  0.00    +0.000 C 
ENDBRANCH  57  58
ENDBRANCH  48  57
ENDBRANCH  46  48
ENDBRANCH  43  44
BRANCH  43  61
ATOM     61  CB  ARG A   7      25.689  20.328  31.934  0.00  0.00    +0.033 C 
BRANCH  61  62
ATOM     62  CG  ARG A   7      24.395  19.674  31.430  0.00  0.00    +0.045 C 
BRANCH  62  63
ATOM     63  CD  ARG A   7      23.473  19.241  32.582  0.00  0.00    +0.174 C 
BRANCH  63  64
ATOM     64  NE  ARG A   7      23.050  17.851  32.431  0.00  0.00    -0.265 N 
ATOM     65  CZ  ARG A   7      22.231  17.207  33.263  0.00  0.00    +0.342 C 
ATOM     66  NH2 ARG A   7      21.732  17.818  34.328  0.00  0.00    -0.292 N 
ATOM     67 HH21 ARG A   7      21.094  17.306  34.970  0.00  0.00    +0.255 HD
ATOM     68 HH22 ARG A   7      21.978  18.810  34.522  0.00  0.00    +0.255 HD
ATOM     69  NH1 ARG A   7      21.916  15.937  33.031  0.00  0.00    -0.292 N 
ATOM     70 HH11 ARG A   7      21.277  15.433  33.679  0.00  0.00    +0.255 HD
ATOM     71 HH12 ARG A   7      22.308  15.447  32.202  0.00  0.00    +0.255 HD
ATOM     72  HE  ARG A   7      23.415  17.324  31.612  0.00  0.00    +0.259 HD
ENDBRANCH  63  64
ENDBRANCH  62  63
ENDBRANCH  61  62
ENDBRANCH  43  61
ENDBRANCH  41  43
ENDBRANCH  38  39
ENDBRANCH   2  38
TORSDOF 28
REMARK  Name = ../refined-set-2016/2qrh/2qrh_pocket.pdb
REMARK  252 active torsions:
REMARK  status: ('A' for Active; 'I' for Inactive)
REMARK    1  A    between atoms: _1  and  _3
REMARK    2  A    between atoms: _3  and  _4
REMARK    3  A    between atoms: _3  and  _6
REMARK    4  A    between atoms: _6  and  _7
REMARK    5  A    between atoms: _12  and  _13
REMARK    6  A    between atoms: _15  and  _17
REMARK    7  A    between atoms: _17  and  _18
REMARK    8  A    between atoms: _17  and  _20
REMARK    9  A    between atoms: _20  and  _21
REMARK   10  A    between atoms: _21  and  _22
REMARK   11  A    between atoms: _25  and  _27
REMARK   12  A    between atoms: _27  and  _28
REMARK   13  A    between atoms: _30  and  _32
REMARK   14  A    between atoms: _32  and  _33
REMARK   15  A    between atoms: _32  and  _35
REMARK   16  A    between atoms: _35  and  _36
REMARK   17  A    between atoms: _41  and  _43
REMARK   18  A    between atoms: _43  and  _44
REMARK   19  A    between atoms: _46  and  _48
REMARK   20  A    between atoms: _48  and  _49
REMARK   21  A    between atoms: _51  and  _53
REMARK   22  A    between atoms: _53  and  _54
REMARK   23  A    between atoms: _53  and  _56
REMARK   24  A    between atoms: _56  and  _57
REMARK   25  A    between atoms: _60  and  _62
REMARK   26  A    between atoms: _62  and  _63
REMARK   27  A    between atoms: _65  and  _67
REMARK   28  A    between atoms: _67  and  _68
REMARK   29  A    between atoms: _67  and  _70
REMARK   30  A    between atoms: _70  and  _71
REMARK   31  A    between atoms: _71  and  _72
REMARK   32  A    between atoms: _72  and  _73
REMARK   33  A    between atoms: _82  and  _84
REMARK   34  A    between atoms: _84  and  _85
REMARK   35  A    between atoms: _84  and  _87
REMARK   36  A    between atoms: _87  and  _88
REMARK   37  A    between atoms: _91  and  _93
REMARK   38  A    between atoms: _93  and  _94
REMARK   39  A    between atoms: _97  and  _99
REMARK   40  A    between atoms: _99  and  _100
REMARK   41  A    between atoms: _99  and  _102
REMARK   42  A    between atoms: _102  and  _103
REMARK   43  A    between atoms: _109  and  _111
REMARK   44  A    between atoms: _111  and  _112
REMARK   45  A    between atoms: _111  and  _114
REMARK   46  A    between atoms: _114  and  _115
REMARK   47  A    between atoms: _120  and  _121
REMARK   48  A    between atoms: _124  and  _125
REMARK   49  A    between atoms: _130  and  _132
REMARK   50  A    between atoms: _132  and  _133
REMARK   51  A    between atoms: _132  and  _135
REMARK   52  A    between atoms: _135  and  _136
REMARK   53  A    between atoms: _141  and  _143
REMARK   54  A    between atoms: _143  and  _144
REMARK   55  A    between atoms: _143  and  _146
REMARK   56  A    between atoms: _146  and  _147
REMARK   57  A    between atoms: _150  and  _152
REMARK   58  A    between atoms: _152  and  _153
REMARK   59  A    between atoms: _152  and  _155
REMARK   60  A    between atoms: _155  and  _156
REMARK   61  A    between atoms: _161  and  _163
REMARK   62  A    between atoms: _163  and  _164
REMARK   63  A    between atoms: _163  and  _166
REMARK   64  A    between atoms: _166  and  _167
REMARK   65  A    between atoms: _173  and  _175
REMARK   66  A    between atoms: _175  and  _176
REMARK   67  A    between atoms: _175  and  _178
REMARK   68  A    between atoms: _178  and  _179
REMARK   69  A    between atoms: _185  and  _187
REMARK   70  A    between atoms: _187  and  _188
REMARK   71  A    between atoms: _187  and  _190
REMARK   72  A    between atoms: _190  and  _191
REMARK   73  A    between atoms: _191  and  _192
REMARK   74  A    between atoms: _195  and  _197
REMARK   75  A    between atoms: _197  and  _198
REMARK   76  A    between atoms: _197  and  _200
REMARK   77  A    between atoms: _200  and  _201
REMARK   78  A    between atoms: _201  and  _202
REMARK   79  A    between atoms: _202  and  _203
REMARK   80  A    between atoms: _212  and  _214
REMARK   81  A    between atoms: _214  and  _215
REMARK   82  A    between atoms: _214  and  _217
REMARK   83  A    between atoms: _217  and  _218
REMARK   84  A    between atoms: _223  and  _225
REMARK   85  A    between atoms: _225  and  _226
REMARK   86  A    between atoms: _225  and  _228
REMARK   87  A    between atoms: _228  and  _229
REMARK   88  A    between atoms: _232  and  _234
REMARK   89  A    between atoms: _234  and  _235
REMARK   90  A    between atoms: _234  and  _237
REMARK   91  A    between atoms: _237  and  _238
REMARK   92  A    between atoms: _241  and  _243
REMARK   93  A    between atoms: _243  and  _244
REMARK   94  A    between atoms: _243  and  _246
REMARK   95  A    between atoms: _246  and  _247
REMARK   96  A    between atoms: _252  and  _254
REMARK   97  A    between atoms: _254  and  _255
REMARK   98  A    between atoms: _254  and  _257
REMARK   99  A    between atoms: _257  and  _258
REMARK  100  A    between atoms: _261  and  _263
REMARK  101  A    between atoms: _263  and  _264
REMARK  102  A    between atoms: _263  and  _266
REMARK  103  A    between atoms: _266  and  _267
REMARK  104  A    between atoms: _272  and  _274
REMARK  105  A    between atoms: _274  and  _275
REMARK  106  A    between atoms: _274  and  _277
REMARK  107  A    between atoms: _277  and  _278
REMARK  108  A    between atoms: _283  and  _285
REMARK  109  A    between atoms: _285  and  _286
REMARK  110  A    between atoms: _285  and  _288
REMARK  111  A    between atoms: _288  and  _289
REMARK  112  A    between atoms: _292  and  _294
REMARK  113  A    between atoms: _294  and  _295
REMARK  114  A    between atoms: _294  and  _297
REMARK  115  A    between atoms: _300  and  _302
REMARK  116  A    between atoms: _302  and  _303
REMARK  117  A    between atoms: _302  and  _305
REMARK  118  A    between atoms: _305  and  _306
REMARK  119  A    between atoms: _309  and  _311
REMARK  120  A    between atoms: _311  and  _312
REMARK  121  A    between atoms: _311  and  _314
REMARK  122  A    between atoms: _314  and  _315
REMARK  123  A    between atoms: _315  and  _316
REMARK  124  A    between atoms: _319  and  _321
REMARK  125  A    between atoms: _321  and  _322
REMARK  126  A    between atoms: _325  and  _327
REMARK  127  A    between atoms: _327  and  _328
REMARK  128  A    between atoms: _327  and  _330
REMARK  129  A    between atoms: _330  and  _331
REMARK  130  A    between atoms: _334  and  _336
REMARK  131  A    between atoms: _336  and  _337
REMARK  132  A    between atoms: _336  and  _339
REMARK  133  A    between atoms: _339  and  _340
REMARK  134  A    between atoms: _340  and  _341
REMARK  135  A    between atoms: _344  and  _346
REMARK  136  A    between atoms: _346  and  _347
REMARK  137  A    between atoms: _346  and  _349
REMARK  138  A    between atoms: _349  and  _350
REMARK  139  A    between atoms: _355  and  _357
REMARK  140  A    between atoms: _357  and  _358
REMARK  141  A    between atoms: _360  and  _362
REMARK  142  A    between atoms: _362  and  _363
REMARK  143  A    between atoms: _362  and  _365
REMARK  144  A    between atoms: _368  and  _370
REMARK  145  A    between atoms: _370  and  _371
REMARK  146  A    between atoms: _374  and  _376
REMARK  147  A    between atoms: _376  and  _377
REMARK  148  A    between atoms: _376  and  _379
REMARK  149  A    between atoms: _379  and  _380
REMARK  150  A    between atoms: _385  and  _387
REMARK  151  A    between atoms: _387  and  _388
REMARK  152  A    between atoms: _387  and  _390
REMARK  153  A    between atoms: _390  and  _391
REMARK  154  A    between atoms: _391  and  _392
REMARK  155  A    between atoms: _392  and  _393
REMARK  156  A    between atoms: _393  and  _394
REMARK  157  A    between atoms: _398  and  _400
REMARK  158  A    between atoms: _400  and  _401
REMARK  159  A    between atoms: _400  and  _403
REMARK  160  A    between atoms: _403  and  _404
REMARK  161  A    between atoms: _407  and  _409
REMARK  162  A    between atoms: _409  and  _410
REMARK  163  A    between atoms: _409  and  _412
REMARK  164  A    between atoms: _412  and  _413
REMARK  165  A    between atoms: _418  and  _420
REMARK  166  A    between atoms: _420  and  _421
REMARK  167  A    between atoms: _423  and  _425
REMARK  168  A    between atoms: _425  and  _426
REMARK  169  A    between atoms: _425  and  _428
REMARK  170  A    between atoms: _428  and  _429
REMARK  171  A    between atoms: _429  and  _430
REMARK  172  A    between atoms: _430  and  _431
REMARK  173  A    between atoms: _431  and  _432
REMARK  174  A    between atoms: _436  and  _438
REMARK  175  A    between atoms: _438  and  _439
REMARK  176  A    between atoms: _438  and  _441
REMARK  177  A    between atoms: _441  and  _442
REMARK  178  A    between atoms: _442  and  _443
REMARK  179  A    between atoms: _443  and  _444
REMARK  180  A    between atoms: _453  and  _455
REMARK  181  A    between atoms: _455  and  _456
REMARK  182  A    between atoms: _455  and  _458
REMARK  183  A    between atoms: _458  and  _459
REMARK  184  A    between atoms: _464  and  _465
REMARK  185  A    between atoms: _467  and  _469
REMARK  186  A    between atoms: _469  and  _470
REMARK  187  A    between atoms: _469  and  _472
REMARK  188  A    between atoms: _472  and  _473
REMARK  189  A    between atoms: _473  and  _474
REMARK  190  A    between atoms: _474  and  _475
REMARK  191  A    between atoms: _475  and  _476
REMARK  192  A    between atoms: _480  and  _482
REMARK  193  A    between atoms: _482  and  _483
REMARK  194  A    between atoms: _482  and  _485
REMARK  195  A    between atoms: _485  and  _486
REMARK  196  A    between atoms: _488  and  _490
REMARK  197  A    between atoms: _490  and  _491
REMARK  198  A    between atoms: _490  and  _493
REMARK  199  A    between atoms: _493  and  _494
REMARK  200  A    between atoms: _497  and  _499
REMARK  201  A    between atoms: _499  and  _500
REMARK  202  A    between atoms: _499  and  _502
REMARK  203  A    between atoms: _502  and  _503
REMARK  204  A    between atoms: _503  and  _504
REMARK  205  A    between atoms: _507  and  _509
REMARK  206  A    between atoms: _509  and  _510
REMARK  207  A    between atoms: _513  and  _515
REMARK  208  A    between atoms: _515  and  _516
REMARK  209  A    between atoms: _515  and  _518
REMARK  210  A    between atoms: _518  and  _519
REMARK  211  A    between atoms: _521  and  _523
REMARK  212  A    between atoms: _523  and  _524
REMARK  213  A    between atoms: _526  and  _528
REMARK  214  A    between atoms: _528  and  _529
REMARK  215  A    between atoms: _528  and  _531
REMARK  216  A    between atoms: _531  and  _532
REMARK  217  A    between atoms: _535  and  _537
REMARK  218  A    between atoms: _537  and  _538
REMARK  219  A    between atoms: _540  and  _542
REMARK  220  A    between atoms: _542  and  _543
REMARK  221  A    between atoms: _542  and  _545
REMARK  222  A    between atoms: _545  and  _546
REMARK  223  A    between atoms: _551  and  _553
REMARK  224  A    between atoms: _553  and  _554
REMARK  225  A    between atoms: _553  and  _556
REMARK  226  A    between atoms: _556  and  _557
REMARK  227  A    between atoms: _557  and  _558
REMARK  228  A    between atoms: _565  and  _566
REMARK  229  A    between atoms: _566  and  _582
REMARK  230  A    between atoms: _567  and  _569
REMARK  231  A    between atoms: _569  and  _570
REMARK  232  A    between atoms: _570  and  _571
REMARK  233  A    between atoms: _575  and  _577
REMARK  234  A    between atoms: _577  and  _578
REMARK  235  A    between atoms: _577  and  _585
REMARK  236  A    between atoms: _578  and  _579
REMARK  237  A    between atoms: _579  and  _580
REMARK  238  A    between atoms: _580  and  _581
REMARK  239  A    between atoms: _581  and  _582
REMARK  240  A    between atoms: _587  and  _589
REMARK  241  A    between atoms: _589  and  _590
REMARK  242  A    between atoms: _589  and  _592
REMARK  243  A    between atoms: _592  and  _593
REMARK  244  A    between atoms: _596  and  _598
REMARK  245  A    between atoms: _598  and  _599
REMARK  246  A    between atoms: _601  and  _603
REMARK  247  A    between atoms: _603  and  _604
REMARK  248  A    between atoms: _607  and  _609
REMARK  249  A    between atoms: _609  and  _610
REMARK  250  A    between atoms: _609  and  _612
REMARK  251  A    between atoms: _612  and  _613
REMARK  252  A    between atoms: _618  and  _619
REMARK                            x       y       z     vdW  Elec       q    Type
REMARK                         _______ _______ _______ _____ _____    ______ ____
ROOT
ATOM      1  CB  PHE A   1      29.091  11.402  32.793  0.00  0.00    +0.051 C 
ENDROOT
BRANCH   1   2
ATOM      2  CG  PHE A   1      29.772  11.641  31.467  0.00  0.00    -0.020 A 
ATOM      3  CD2 PHE A   1      31.152  11.794  31.407  0.00  0.00    -0.004 A 
ATOM      4  CE2 PHE A   1      31.795  12.024  30.187  0.00  0.00    -0.000 A 
ATOM      5  CZ  PHE A   1      31.051  12.108  29.020  0.00  0.00    -0.000 A 
ATOM      6  CE1 PHE A   1      29.667  11.962  29.066  0.00  0.00    -0.000 A 
ATOM      7  CD1 PHE A   1      29.036  11.737  30.285  0.00  0.00    -0.004 A 
ENDBRANCH   1   2
BRANCH   1   8
ATOM      8  CA  PHE A   1      27.605  11.038  32.676  0.00  0.00    +0.137 C 
BRANCH   8   9
ATOM      9  N   PHE A   1      26.780  12.234  32.495  0.00  0.00    -0.239 NA
ATOM     10  H   PHE A   1      27.231  13.170  32.543  0.00  0.00    +0.142 HD
ENDBRANCH   8   9
BRANCH   8  11
ATOM     11  C   PHE A   1      27.167  10.194  33.869  0.00  0.00    +0.224 C 
ATOM     12  O   PHE A   1      27.110   8.972  33.765  0.00  0.00    -0.287 OA
ENDBRANCH   8  11
ENDBRANCH   1   8
TORSDOF 4
REMARK  Name = ../refined-set-2016/2qrh/2qrh_pocket.pdb
REMARK  252 active torsions:
REMARK  status: ('A' for Active; 'I' for Inactive)
REMARK    1  A    between atoms: _1  and  _3
REMARK    2  A    between atoms: _3  and  _4
REMARK    3  A    between atoms: _3  and  _6
REMARK    4  A    between atoms: _6  and  _7
REMARK    5  A    between atoms: _12  and  _13
REMARK    6  A    between atoms: _15  and  _17
REMARK    7  A    between atoms: _17  and  _18
REMARK    8  A    between atoms: _17  and  _20
REMARK    9  A    between atoms: _20  and  _21
REMARK   10  A    between atoms: _21  and  _22
REMARK   11  A    between atoms: _25  and  _27
REMARK   12  A    between atoms: _27  and  _28
REMARK   13  A    between atoms: _30  and  _32
REMARK   14  A    between atoms: _32  and  _33
REMARK   15  A    between atoms: _32  and  _35
REMARK   16  A    between atoms: _35  and  _36
REMARK   17  A    between atoms: _41  and  _43
REMARK   18  A    between atoms: _43  and  _44
REMARK   19  A    between atoms: _46  and  _48
REMARK   20  A    between atoms: _48  and  _49
REMARK   21  A    between atoms: _51  and  _53
REMARK   22  A    between atoms: _53  and  _54
REMARK   23  A    between atoms: _53  and  _56
REMARK   24  A    between atoms: _56  and  _57
REMARK   25  A    between atoms: _60  and  _62
REMARK   26  A    between atoms: _62  and  _63
REMARK   27  A    between atoms: _65  and  _67
REMARK   28  A    between atoms: _67  and  _68
REMARK   29  A    between atoms: _67  and  _70
REMARK   30  A    between atoms: _70  and  _71
REMARK   31  A    between atoms: _71  and  _72
REMARK   32  A    between atoms: _72  and  _73
REMARK   33  A    between atoms: _82  and  _84
REMARK   34  A    between atoms: _84  and  _85
REMARK   35  A    between atoms: _84  and  _87
REMARK   36  A    between atoms: _87  and  _88
REMARK   37  A    between atoms: _91  and  _93
REMARK   38  A    between atoms: _93  and  _94
REMARK   39  A    between atoms: _97  and  _99
REMARK   40  A    between atoms: _99  and  _100
REMARK   41  A    between atoms: _99  and  _102
REMARK   42  A    between atoms: _102  and  _103
REMARK   43  A    between atoms: _109  and  _111
REMARK   44  A    between atoms: _111  and  _112
REMARK   45  A    between atoms: _111  and  _114
REMARK   46  A    between atoms: _114  and  _115
REMARK   47  A    between atoms: _120  and  _121
REMARK   48  A    between atoms: _124  and  _125
REMARK   49  A    between atoms: _130  and  _132
REMARK   50  A    between atoms: _132  and  _133
REMARK   51  A    between atoms: _132  and  _135
REMARK   52  A    between atoms: _135  and  _136
REMARK   53  A    between atoms: _141  and  _143
REMARK   54  A    between atoms: _143  and  _144
REMARK   55  A    between atoms: _143  and  _146
REMARK   56  A    between atoms: _146  and  _147
REMARK   57  A    between atoms: _150  and  _152
REMARK   58  A    between atoms: _152  and  _153
REMARK   59  A    between atoms: _152  and  _155
REMARK   60  A    between atoms: _155  and  _156
REMARK   61  A    between atoms: _161  and  _163
REMARK   62  A    between atoms: _163  and  _164
REMARK   63  A    between atoms: _163  and  _166
REMARK   64  A    between atoms: _166  and  _167
REMARK   65  A    between atoms: _173  and  _175
REMARK   66  A    between atoms: _175  and  _176
REMARK   67  A    between atoms: _175  and  _178
REMARK   68  A    between atoms: _178  and  _179
REMARK   69  A    between atoms: _185  and  _187
REMARK   70  A    between atoms: _187  and  _188
REMARK   71  A    between atoms: _187  and  _190
REMARK   72  A    between atoms: _190  and  _191
REMARK   73  A    between atoms: _191  and  _192
REMARK   74  A    between atoms: _195  and  _197
REMARK   75  A    between atoms: _197  and  _198
REMARK   76  A    between atoms: _197  and  _200
REMARK   77  A    between atoms: _200  and  _201
REMARK   78  A    between atoms: _201  and  _202
REMARK   79  A    between atoms: _202  and  _203
REMARK   80  A    between atoms: _212  and  _214
REMARK   81  A    between atoms: _214  and  _215
REMARK   82  A    between atoms: _214  and  _217
REMARK   83  A    between atoms: _217  and  _218
REMARK   84  A    between atoms: _223  and  _225
REMARK   85  A    between atoms: _225  and  _226
REMARK   86  A    between atoms: _225  and  _228
REMARK   87  A    between atoms: _228  and  _229
REMARK   88  A    between atoms: _232  and  _234
REMARK   89  A    between atoms: _234  and  _235
REMARK   90  A    between atoms: _234  and  _237
REMARK   91  A    between atoms: _237  and  _238
REMARK   92  A    between atoms: _241  and  _243
REMARK   93  A    between atoms: _243  and  _244
REMARK   94  A    between atoms: _243  and  _246
REMARK   95  A    between atoms: _246  and  _247
REMARK   96  A    between atoms: _252  and  _254
REMARK   97  A    between atoms: _254  and  _255
REMARK   98  A    between atoms: _254  and  _257
REMARK   99  A    between atoms: _257  and  _258
REMARK  100  A    between atoms: _261  and  _263
REMARK  101  A    between atoms: _263  and  _264
REMARK  102  A    between atoms: _263  and  _266
REMARK  103  A    between atoms: _266  and  _267
REMARK  104  A    between atoms: _272  and  _274
REMARK  105  A    between atoms: _274  and  _275
REMARK  106  A    between atoms: _274  and  _277
REMARK  107  A    between atoms: _277  and  _278
REMARK  108  A    between atoms: _283  and  _285
REMARK  109  A    between atoms: _285  and  _286
REMARK  110  A    between atoms: _285  and  _288
REMARK  111  A    between atoms: _288  and  _289
REMARK  112  A    between atoms: _292  and  _294
REMARK  113  A    between atoms: _294  and  _295
REMARK  114  A    between atoms: _294  and  _297
REMARK  115  A    between atoms: _300  and  _302
REMARK  116  A    between atoms: _302  and  _303
REMARK  117  A    between atoms: _302  and  _305
REMARK  118  A    between atoms: _305  and  _306
REMARK  119  A    between atoms: _309  and  _311
REMARK  120  A    between atoms: _311  and  _312
REMARK  121  A    between atoms: _311  and  _314
REMARK  122  A    between atoms: _314  and  _315
REMARK  123  A    between atoms: _315  and  _316
REMARK  124  A    between atoms: _319  and  _321
REMARK  125  A    between atoms: _321  and  _322
REMARK  126  A    between atoms: _325  and  _327
REMARK  127  A    between atoms: _327  and  _328
REMARK  128  A    between atoms: _327  and  _330
REMARK  129  A    between atoms: _330  and  _331
REMARK  130  A    between atoms: _334  and  _336
REMARK  131  A    between atoms: _336  and  _337
REMARK  132  A    between atoms: _336  and  _339
REMARK  133  A    between atoms: _339  and  _340
REMARK  134  A    between atoms: _340  and  _341
REMARK  135  A    between atoms: _344  and  _346
REMARK  136  A    between atoms: _346  and  _347
REMARK  137  A    between atoms: _346  and  _349
REMARK  138  A    between atoms: _349  and  _350
REMARK  139  A    between atoms: _355  and  _357
REMARK  140  A    between atoms: _357  and  _358
REMARK  141  A    between atoms: _360  and  _362
REMARK  142  A    between atoms: _362  and  _363
REMARK  143  A    between atoms: _362  and  _365
REMARK  144  A    between atoms: _368  and  _370
REMARK  145  A    between atoms: _370  and  _371
REMARK  146  A    between atoms: _374  and  _376
REMARK  147  A    between atoms: _376  and  _377
REMARK  148  A    between atoms: _376  and  _379
REMARK  149  A    between atoms: _379  and  _380
REMARK  150  A    between atoms: _385  and  _387
REMARK  151  A    between atoms: _387  and  _388
REMARK  152  A    between atoms: _387  and  _390
REMARK  153  A    between atoms: _390  and  _391
REMARK  154  A    between atoms: _391  and  _392
REMARK  155  A    between atoms: _392  and  _393
REMARK  156  A    between atoms: _393  and  _394
REMARK  157  A    between atoms: _398  and  _400
REMARK  158  A    between atoms: _400  and  _401
REMARK  159  A    between atoms: _400  and  _403
REMARK  160  A    between atoms: _403  and  _404
REMARK  161  A    between atoms: _407  and  _409
REMARK  162  A    between atoms: _409  and  _410
REMARK  163  A    between atoms: _409  and  _412
REMARK  164  A    between atoms: _412  and  _413
REMARK  165  A    between atoms: _418  and  _420
REMARK  166  A    between atoms: _420  and  _421
REMARK  167  A    between atoms: _423  and  _425
REMARK  168  A    between atoms: _425  and  _426
REMARK  169  A    between atoms: _425  and  _428
REMARK  170  A    between atoms: _428  and  _429
REMARK  171  A    between atoms: _429  and  _430
REMARK  172  A    between atoms: _430  and  _431
REMARK  173  A    between atoms: _431  and  _432
REMARK  174  A    between atoms: _436  and  _438
REMARK  175  A    between atoms: _438  and  _439
REMARK  176  A    between atoms: _438  and  _441
REMARK  177  A    between atoms: _441  and  _442
REMARK  178  A    between atoms: _442  and  _443
REMARK  179  A    between atoms: _443  and  _444
REMARK  180  A    between atoms: _453  and  _455
REMARK  181  A    between atoms: _455  and  _456
REMARK  182  A    between atoms: _455  and  _458
REMARK  183  A    between atoms: _458  and  _459
REMARK  184  A    between atoms: _464  and  _465
REMARK  185  A    between atoms: _467  and  _469
REMARK  186  A    between atoms: _469  and  _470
REMARK  187  A    between atoms: _469  and  _472
REMARK  188  A    between atoms: _472  and  _473
REMARK  189  A    between atoms: _473  and  _474
REMARK  190  A    between atoms: _474  and  _475
REMARK  191  A    between atoms: _475  and  _476
REMARK  192  A    between atoms: _480  and  _482
REMARK  193  A    between atoms: _482  and  _483
REMARK  194  A    between atoms: _482  and  _485
REMARK  195  A    between atoms: _485  and  _486
REMARK  196  A    between atoms: _488  and  _490
REMARK  197  A    between atoms: _490  and  _491
REMARK  198  A    between atoms: _490  and  _493
REMARK  199  A    between atoms: _493  and  _494
REMARK  200  A    between atoms: _497  and  _499
REMARK  201  A    between atoms: _499  and  _500
REMARK  202  A    between atoms: _499  and  _502
REMARK  203  A    between atoms: _502  and  _503
REMARK  204  A    between atoms: _503  and  _504
REMARK  205  A    between atoms: _507  and  _509
REMARK  206  A    between atoms: _509  and  _510
REMARK  207  A    between atoms: _513  and  _515
REMARK  208  A    between atoms: _515  and  _516
REMARK  209  A    between atoms: _515  and  _518
REMARK  210  A    between atoms: _518  and  _519
REMARK  211  A    between atoms: _521  and  _523
REMARK  212  A    between atoms: _523  and  _524
REMARK  213  A    between atoms: _526  and  _528
REMARK  214  A    between atoms: _528  and  _529
REMARK  215  A    between atoms: _528  and  _531
REMARK  216  A    between atoms: _531  and  _532
REMARK  217  A    between atoms: _535  and  _537
REMARK  218  A    between atoms: _537  and  _538
REMARK  219  A    between atoms: _540  and  _542
REMARK  220  A    between atoms: _542  and  _543
REMARK  221  A    between atoms: _542  and  _545
REMARK  222  A    between atoms: _545  and  _546
REMARK  223  A    between atoms: _551  and  _553
REMARK  224  A    between atoms: _553  and  _554
REMARK  225  A    between atoms: _553  and  _556
REMARK  226  A    between atoms: _556  and  _557
REMARK  227  A    between atoms: _557  and  _558
REMARK  228  A    between atoms: _565  and  _566
REMARK  229  A    between atoms: _566  and  _582
REMARK  230  A    between atoms: _567  and  _569
REMARK  231  A    between atoms: _569  and  _570
REMARK  232  A    between atoms: _570  and  _571
REMARK  233  A    between atoms: _575  and  _577
REMARK  234  A    between atoms: _577  and  _578
REMARK  235  A    between atoms: _577  and  _585
REMARK  236  A    between atoms: _578  and  _579
REMARK  237  A    between atoms: _579  and  _580
REMARK  238  A    between atoms: _580  and  _581
REMARK  239  A    between atoms: _581  and  _582
REMARK  240  A    between atoms: _587  and  _589
REMARK  241  A    between atoms: _589  and  _590
REMARK  242  A    between atoms: _589  and  _592
REMARK  243  A    between atoms: _592  and  _593
REMARK  244  A    between atoms: _596  and  _598
REMARK  245  A    between atoms: _598  and  _599
REMARK  246  A    between atoms: _601  and  _603
REMARK  247  A    between atoms: _603  and  _604
REMARK  248  A    between atoms: _607  and  _609
REMARK  249  A    between atoms: _609  and  _610
REMARK  250  A    between atoms: _609  and  _612
REMARK  251  A    between atoms: _612  and  _613
REMARK  252  A    between atoms: _618  and  _619
REMARK                            x       y       z     vdW  Elec       q    Type
REMARK                         _______ _______ _______ _____ _____    ______ ____
ROOT
ATOM      1  C   ASP A   4      35.057  29.498  31.061  0.00  0.00    +0.241 C 
ATOM      2  N   ASN A   5      35.856  28.450  30.856  0.00  0.00    -0.297 N 
ATOM      3  H   ASN A   5      35.668  27.567  31.372  0.00  0.00    +0.150 HD
ATOM      4  O   ASP A   4      35.224  30.592  30.519  0.00  0.00    -0.273 OA
ENDROOT
BRANCH   2   5
ATOM      5  CA  ASN A   5      36.992  28.499  29.927  0.00  0.00    +0.158 C 
BRANCH   5   6
ATOM      6  C   ASN A   5      37.990  29.621  30.230  0.00  0.00    +0.241 C 
ATOM      7  N   PHE A   6      38.304  29.796  31.511  0.00  0.00    -0.297 N 
ATOM      8  H   PHE A   6      37.838  29.205  32.229  0.00  0.00    +0.150 HD
ATOM      9  O   ASN A   5      38.456  30.313  29.324  0.00  0.00    -0.273 OA
BRANCH   7  10
ATOM     10  CA  PHE A   6      39.281  30.790  31.940  0.00  0.00    +0.153 C 
BRANCH  10  11
ATOM     11  C   PHE A   6      39.950  30.325  33.225  0.00  0.00    +0.241 C 
ATOM     12  O   PHE A   6      39.274  29.891  34.161  0.00  0.00    -0.273 OA
ATOM     13  N   PHE A   7      41.279  30.399  33.257  0.00  0.00    -0.297 N 
ATOM     14  H   PHE A   7      41.789  30.744  32.419  0.00  0.00    +0.150 HD
BRANCH  13  15
ATOM     15  CA  PHE A   7      42.035  30.008  34.440  0.00  0.00    +0.153 C 
BRANCH  15  16
ATOM     16  C   PHE A   7      42.372  31.215  35.305  0.00  0.00    +0.241 C 
ATOM     17  N   GLU A   8      41.935  31.155  36.559  0.00  0.00    -0.298 N 
ATOM     18  H   GLU A   8      41.333  30.354  36.838  0.00  0.00    +0.150 HD
ATOM     19  O   PHE A   7      43.001  32.170  34.845  0.00  0.00    -0.273 OA
BRANCH  17  20
ATOM     20  CA  GLU A   8      42.261  32.160  37.559  0.00  0.00    +0.137 C 
BRANCH  20  21
ATOM     21  C   GLU A   8      43.140  31.494  38.613  0.00  0.00    +0.227 C 
ATOM     22  O   GLU A   8      42.689  30.597  39.334  0.00  0.00    -0.286 OA
ENDBRANCH  20  21
BRANCH  20  23
ATOM     23  CB  GLU A   8      40.974  32.700  38.185  0.00  0.00    +0.039 C 
BRANCH  23  24
ATOM     24  CG  GLU A   8      41.087  34.088  38.786  0.00  0.00    +0.116 C 
BRANCH  24  25
ATOM     25  CD  GLU A   8      39.786  34.556  39.424  0.00  0.00    +0.365 C 
ATOM     26  OE2 GLU A   8      39.848  35.428  40.318  0.00  0.00    -0.246 OA
ATOM     27  OE1 GLU A   8      38.703  34.053  39.040  0.00  0.00    -0.246 OA
ENDBRANCH  24  25
ENDBRANCH  23  24
ENDBRANCH  20  23
ENDBRANCH  17  20
ENDBRANCH  15  16
BRANCH  15  28
ATOM     28  CB  PHE A   7      43.307  29.238  34.054  0.00  0.00    +0.055 C 
BRANCH  28  29
ATOM     29  CG  PHE A   7      44.248  28.990  35.209  0.00  0.00    -0.020 A 
ATOM     30  CD2 PHE A   7      43.866  28.187  36.279  0.00  0.00    -0.004 A 
ATOM     31  CE2 PHE A   7      44.734  27.952  37.344  0.00  0.00    -0.000 A 
ATOM     32  CZ  PHE A   7      46.001  28.527  37.343  0.00  0.00    -0.000 A 
ATOM     33  CE1 PHE A   7      46.394  29.333  36.285  0.00  0.00    -0.000 A 
ATOM     34  CD1 PHE A   7      45.517  29.562  35.221  0.00  0.00    -0.004 A 
ENDBRANCH  28  29
ENDBRANCH  15  28
ENDBRANCH  13  15
ENDBRANCH  10  11
BRANCH  10  35
ATOM     35  CB  PHE A   6      38.618  32.159  32.139  0.00  0.00    +0.055 C 
BRANCH  35  36
ATOM     36  CG  PHE A   6      39.588  33.267  32.463  0.00  0.00    -0.020 A 
ATOM     37  CD2 PHE A   6      39.680  33.774  33.755  0.00  0.00    -0.004 A 
ATOM     38  CE2 PHE A   6      40.577  34.798  34.062  0.00  0.00    -0.000 A 
ATOM     39  CZ  PHE A   6      41.395  35.324  33.067  0.00  0.00    -0.000 A 
ATOM     40  CE1 PHE A   6      41.310  34.826  31.768  0.00  0.00    -0.000 A 
ATOM     41  CD1 PHE A   6      40.408  33.804  31.474  0.00  0.00    -0.004 A 
ENDBRANCH  35  36
ENDBRANCH  10  35
ENDBRANCH   7  10
ENDBRANCH   5   6
BRANCH   5  42
ATOM     42  CB  ASN A   5      36.499  28.597  28.478  0.00  0.00    +0.114 C 
BRANCH  42  43
ATOM     43  CG  ASN A   5      36.134  27.257  27.901  0.00  0.00    +0.222 C 
ATOM     44  ND2 ASN A   5      34.839  26.987  27.796  0.00  0.00    -0.329 N 
ATOM     45 HD21 ASN A   5      34.135  27.688  28.104  0.00  0.00    +0.145 HD
ATOM     46 HD22 ASN A   5      34.528  26.075  27.405  0.00  0.00    +0.145 HD
ATOM     47  OD1 ASN A   5      37.008  26.468  27.553  0.00  0.00    -0.275 OA
ENDBRANCH  42  43
ENDBRANCH   5  42
ENDBRANCH   2   5
BRANCH   1  48
ATOM     48  CA  ASP A   4      33.913  29.291  32.044  0.00  0.00    +0.160 C 
BRANCH  48  51
ATOM     49  C   ASN A   3      34.547  29.870  34.319  0.00  0.00    +0.241 C 
ATOM     50  O   ASN A   3      34.728  28.694  34.642  0.00  0.00    -0.273 OA
ATOM     51  N   ASP A   4      34.111  30.240  33.124  0.00  0.00    -0.297 N 
ATOM     52  H   ASP A   4      33.904  31.245  32.954  0.00  0.00    +0.150 HD
BRANCH  49  53
ATOM     53  CA  ASN A   3      34.814  31.004  35.297  0.00  0.00    +0.158 C 
BRANCH  53  55
ATOM     54  C   PRO A   2      32.924  31.462  36.765  0.00  0.00    +0.241 C 
ATOM     55  N   ASN A   3      34.097  30.874  36.565  0.00  0.00    -0.297 N 
ATOM     56  H   ASN A   3      34.517  30.307  37.329  0.00  0.00    +0.150 HD
ATOM     57  O   PRO A   2      32.350  32.126  35.895  0.00  0.00    -0.273 OA
BRANCH  54  63
ATOM     58  C   TYR A   1      33.720  29.915  39.606  0.00  0.00    +0.242 C 
ATOM     59  N   PRO A   2      33.200  31.108  39.262  0.00  0.00    -0.272 N 
ATOM     60  CD  PRO A   2      33.448  32.387  39.958  0.00  0.00    +0.094 C 
ATOM     61  CG  PRO A   2      32.469  33.346  39.314  0.00  0.00    +0.024 C 
ATOM     62  CB  PRO A   2      31.475  32.516  38.544  0.00  0.00    +0.031 C 
ATOM     63  CA  PRO A   2      32.266  31.268  38.144  0.00  0.00    +0.152 C 
ATOM     64  O   TYR A   1      33.541  28.890  38.945  0.00  0.00    -0.273 OA
BRANCH  58  65
ATOM     65  CA  TYR A   1      34.524  29.857  40.909  0.00  0.00    +0.149 C 
BRANCH  65  66
ATOM     66  N   TYR A   1      33.915  28.885  41.818  0.00  0.00    -0.238 NA
ATOM     67  H   TYR A   1      34.448  28.036  42.094  0.00  0.00    +0.142 HD
ENDBRANCH  65  66
BRANCH  65  68
ATOM     68  CB  TYR A   1      35.994  29.522  40.655  0.00  0.00    +0.053 C 
BRANCH  68  69
ATOM     69  CG  TYR A   1      36.890  30.079  41.730  0.00  0.00    -0.020 A 
ATOM     70  CD2 TYR A   1      37.057  29.413  42.943  0.00  0.00    -0.001 A 
ATOM     71  CE2 TYR A   1      37.876  29.938  43.941  0.00  0.00    +0.036 A 
ATOM     72  CZ  TYR A   1      38.520  31.144  43.728  0.00  0.00    +0.134 A 
ATOM     73  CE1 TYR A   1      38.360  31.827  42.538  0.00  0.00    +0.036 A 
ATOM     74  CD1 TYR A   1      37.544  31.294  41.548  0.00  0.00    -0.001 A 
BRANCH  72  75
ATOM     75  OH  TYR A   1      39.323  31.677  44.707  0.00  0.00    -0.506 OA
ATOM     76  HH  TYR A   1      38.970  32.562  44.977  0.00  0.00    +0.292 HD
ENDBRANCH  72  75
ENDBRANCH  68  69
ENDBRANCH  65  68
ENDBRANCH  58  65
ENDBRANCH  54  63
ENDBRANCH  53  55
BRANCH  53  77
ATOM     77  CB  ASN A   3      36.315  31.139  35.541  0.00  0.00    +0.114 C 
BRANCH  77  78
ATOM     78  CG  ASN A   3      36.655  32.360  36.364  0.00  0.00    +0.222 C 
ATOM     79  ND2 ASN A   3      37.381  32.153  37.454  0.00  0.00    -0.329 N 
ATOM     80 HD21 ASN A   3      37.637  32.952  38.068  0.00  0.00    +0.145 HD
ATOM     81 HD22 ASN A   3      37.695  31.191  37.695  0.00  0.00    +0.145 HD
ATOM     82  OD1 ASN A   3      36.257  33.477  36.031  0.00  0.00    -0.275 OA
ENDBRANCH  77  78
ENDBRANCH  53  77
ENDBRANCH  49  53
ENDBRANCH  48  51
BRANCH  48  83
ATOM     83  CB  ASP A   4      32.559  29.540  31.375  0.00  0.00    +0.143 C 
BRANCH  83  84
ATOM     84  CG  ASP A   4      32.146  28.417  30.438  0.00  0.00    +0.367 C 
ATOM     85  OD2 ASP A   4      31.212  27.666  30.793  0.00  0.00    -0.246 OA
ATOM     86  OD1 ASP A   4      32.743  28.287  29.346  0.00  0.00    -0.246 OA
ENDBRANCH  83  84
ENDBRANCH  48  83
ENDBRANCH   1  48
TORSDOF 31
REMARK  Name = ../refined-set-2016/2qrh/2qrh_pocket.pdb
REMARK  252 active torsions:
REMARK  status: ('A' for Active; 'I' for Inactive)
REMARK    1  A    between atoms: _1  and  _3
REMARK    2  A    between atoms: _3  and  _4
REMARK    3  A    between atoms: _3  and  _6
REMARK    4  A    between atoms: _6  and  _7
REMARK    5  A    between atoms: _12  and  _13
REMARK    6  A    between atoms: _15  and  _17
REMARK    7  A    between atoms: _17  and  _18
REMARK    8  A    between atoms: _17  and  _20
REMARK    9  A    between atoms: _20  and  _21
REMARK   10  A    between atoms: _21  and  _22
REMARK   11  A    between atoms: _25  and  _27
REMARK   12  A    between atoms: _27  and  _28
REMARK   13  A    between atoms: _30  and  _32
REMARK   14  A    between atoms: _32  and  _33
REMARK   15  A    between atoms: _32  and  _35
REMARK   16  A    between atoms: _35  and  _36
REMARK   17  A    between atoms: _41  and  _43
REMARK   18  A    between atoms: _43  and  _44
REMARK   19  A    between atoms: _46  and  _48
REMARK   20  A    between atoms: _48  and  _49
REMARK   21  A    between atoms: _51  and  _53
REMARK   22  A    between atoms: _53  and  _54
REMARK   23  A    between atoms: _53  and  _56
REMARK   24  A    between atoms: _56  and  _57
REMARK   25  A    between atoms: _60  and  _62
REMARK   26  A    between atoms: _62  and  _63
REMARK   27  A    between atoms: _65  and  _67
REMARK   28  A    between atoms: _67  and  _68
REMARK   29  A    between atoms: _67  and  _70
REMARK   30  A    between atoms: _70  and  _71
REMARK   31  A    between atoms: _71  and  _72
REMARK   32  A    between atoms: _72  and  _73
REMARK   33  A    between atoms: _82  and  _84
REMARK   34  A    between atoms: _84  and  _85
REMARK   35  A    between atoms: _84  and  _87
REMARK   36  A    between atoms: _87  and  _88
REMARK   37  A    between atoms: _91  and  _93
REMARK   38  A    between atoms: _93  and  _94
REMARK   39  A    between atoms: _97  and  _99
REMARK   40  A    between atoms: _99  and  _100
REMARK   41  A    between atoms: _99  and  _102
REMARK   42  A    between atoms: _102  and  _103
REMARK   43  A    between atoms: _109  and  _111
REMARK   44  A    between atoms: _111  and  _112
REMARK   45  A    between atoms: _111  and  _114
REMARK   46  A    between atoms: _114  and  _115
REMARK   47  A    between atoms: _120  and  _121
REMARK   48  A    between atoms: _124  and  _125
REMARK   49  A    between atoms: _130  and  _132
REMARK   50  A    between atoms: _132  and  _133
REMARK   51  A    between atoms: _132  and  _135
REMARK   52  A    between atoms: _135  and  _136
REMARK   53  A    between atoms: _141  and  _143
REMARK   54  A    between atoms: _143  and  _144
REMARK   55  A    between atoms: _143  and  _146
REMARK   56  A    between atoms: _146  and  _147
REMARK   57  A    between atoms: _150  and  _152
REMARK   58  A    between atoms: _152  and  _153
REMARK   59  A    between atoms: _152  and  _155
REMARK   60  A    between atoms: _155  and  _156
REMARK   61  A    between atoms: _161  and  _163
REMARK   62  A    between atoms: _163  and  _164
REMARK   63  A    between atoms: _163  and  _166
REMARK   64  A    between atoms: _166  and  _167
REMARK   65  A    between atoms: _173  and  _175
REMARK   66  A    between atoms: _175  and  _176
REMARK   67  A    between atoms: _175  and  _178
REMARK   68  A    between atoms: _178  and  _179
REMARK   69  A    between atoms: _185  and  _187
REMARK   70  A    between atoms: _187  and  _188
REMARK   71  A    between atoms: _187  and  _190
REMARK   72  A    between atoms: _190  and  _191
REMARK   73  A    between atoms: _191  and  _192
REMARK   74  A    between atoms: _195  and  _197
REMARK   75  A    between atoms: _197  and  _198
REMARK   76  A    between atoms: _197  and  _200
REMARK   77  A    between atoms: _200  and  _201
REMARK   78  A    between atoms: _201  and  _202
REMARK   79  A    between atoms: _202  and  _203
REMARK   80  A    between atoms: _212  and  _214
REMARK   81  A    between atoms: _214  and  _215
REMARK   82  A    between atoms: _214  and  _217
REMARK   83  A    between atoms: _217  and  _218
REMARK   84  A    between atoms: _223  and  _225
REMARK   85  A    between atoms: _225  and  _226
REMARK   86  A    between atoms: _225  and  _228
REMARK   87  A    between atoms: _228  and  _229
REMARK   88  A    between atoms: _232  and  _234
REMARK   89  A    between atoms: _234  and  _235
REMARK   90  A    between atoms: _234  and  _237
REMARK   91  A    between atoms: _237  and  _238
REMARK   92  A    between atoms: _241  and  _243
REMARK   93  A    between atoms: _243  and  _244
REMARK   94  A    between atoms: _243  and  _246
REMARK   95  A    between atoms: _246  and  _247
REMARK   96  A    between atoms: _252  and  _254
REMARK   97  A    between atoms: _254  and  _255
REMARK   98  A    between atoms: _254  and  _257
REMARK   99  A    between atoms: _257  and  _258
REMARK  100  A    between atoms: _261  and  _263
REMARK  101  A    between atoms: _263  and  _264
REMARK  102  A    between atoms: _263  and  _266
REMARK  103  A    between atoms: _266  and  _267
REMARK  104  A    between atoms: _272  and  _274
REMARK  105  A    between atoms: _274  and  _275
REMARK  106  A    between atoms: _274  and  _277
REMARK  107  A    between atoms: _277  and  _278
REMARK  108  A    between atoms: _283  and  _285
REMARK  109  A    between atoms: _285  and  _286
REMARK  110  A    between atoms: _285  and  _288
REMARK  111  A    between atoms: _288  and  _289
REMARK  112  A    between atoms: _292  and  _294
REMARK  113  A    between atoms: _294  and  _295
REMARK  114  A    between atoms: _294  and  _297
REMARK  115  A    between atoms: _300  and  _302
REMARK  116  A    between atoms: _302  and  _303
REMARK  117  A    between atoms: _302  and  _305
REMARK  118  A    between atoms: _305  and  _306
REMARK  119  A    between atoms: _309  and  _311
REMARK  120  A    between atoms: _311  and  _312
REMARK  121  A    between atoms: _311  and  _314
REMARK  122  A    between atoms: _314  and  _315
REMARK  123  A    between atoms: _315  and  _316
REMARK  124  A    between atoms: _319  and  _321
REMARK  125  A    between atoms: _321  and  _322
REMARK  126  A    between atoms: _325  and  _327
REMARK  127  A    between atoms: _327  and  _328
REMARK  128  A    between atoms: _327  and  _330
REMARK  129  A    between atoms: _330  and  _331
REMARK  130  A    between atoms: _334  and  _336
REMARK  131  A    between atoms: _336  and  _337
REMARK  132  A    between atoms: _336  and  _339
REMARK  133  A    between atoms: _339  and  _340
REMARK  134  A    between atoms: _340  and  _341
REMARK  135  A    between atoms: _344  and  _346
REMARK  136  A    between atoms: _346  and  _347
REMARK  137  A    between atoms: _346  and  _349
REMARK  138  A    between atoms: _349  and  _350
REMARK  139  A    between atoms: _355  and  _357
REMARK  140  A    between atoms: _357  and  _358
REMARK  141  A    between atoms: _360  and  _362
REMARK  142  A    between atoms: _362  and  _363
REMARK  143  A    between atoms: _362  and  _365
REMARK  144  A    between atoms: _368  and  _370
REMARK  145  A    between atoms: _370  and  _371
REMARK  146  A    between atoms: _374  and  _376
REMARK  147  A    between atoms: _376  and  _377
REMARK  148  A    between atoms: _376  and  _379
REMARK  149  A    between atoms: _379  and  _380
REMARK  150  A    between atoms: _385  and  _387
REMARK  151  A    between atoms: _387  and  _388
REMARK  152  A    between atoms: _387  and  _390
REMARK  153  A    between atoms: _390  and  _391
REMARK  154  A    between atoms: _391  and  _392
REMARK  155  A    between atoms: _392  and  _393
REMARK  156  A    between atoms: _393  and  _394
REMARK  157  A    between atoms: _398  and  _400
REMARK  158  A    between atoms: _400  and  _401
REMARK  159  A    between atoms: _400  and  _403
REMARK  160  A    between atoms: _403  and  _404
REMARK  161  A    between atoms: _407  and  _409
REMARK  162  A    between atoms: _409  and  _410
REMARK  163  A    between atoms: _409  and  _412
REMARK  164  A    between atoms: _412  and  _413
REMARK  165  A    between atoms: _418  and  _420
REMARK  166  A    between atoms: _420  and  _421
REMARK  167  A    between atoms: _423  and  _425
REMARK  168  A    between atoms: _425  and  _426
REMARK  169  A    between atoms: _425  and  _428
REMARK  170  A    between atoms: _428  and  _429
REMARK  171  A    between atoms: _429  and  _430
REMARK  172  A    between atoms: _430  and  _431
REMARK  173  A    between atoms: _431  and  _432
REMARK  174  A    between atoms: _436  and  _438
REMARK  175  A    between atoms: _438  and  _439
REMARK  176  A    between atoms: _438  and  _441
REMARK  177  A    between atoms: _441  and  _442
REMARK  178  A    between atoms: _442  and  _443
REMARK  179  A    between atoms: _443  and  _444
REMARK  180  A    between atoms: _453  and  _455
REMARK  181  A    between atoms: _455  and  _456
REMARK  182  A    between atoms: _455  and  _458
REMARK  183  A    between atoms: _458  and  _459
REMARK  184  A    between atoms: _464  and  _465
REMARK  185  A    between atoms: _467  and  _469
REMARK  186  A    between atoms: _469  and  _470
REMARK  187  A    between atoms: _469  and  _472
REMARK  188  A    between atoms: _472  and  _473
REMARK  189  A    between atoms: _473  and  _474
REMARK  190  A    between atoms: _474  and  _475
REMARK  191  A    between atoms: _475  and  _476
REMARK  192  A    between atoms: _480  and  _482
REMARK  193  A    between atoms: _482  and  _483
REMARK  194  A    between atoms: _482  and  _485
REMARK  195  A    between atoms: _485  and  _486
REMARK  196  A    between atoms: _488  and  _490
REMARK  197  A    between atoms: _490  and  _491
REMARK  198  A    between atoms: _490  and  _493
REMARK  199  A    between atoms: _493  and  _494
REMARK  200  A    between atoms: _497  and  _499
REMARK  201  A    between atoms: _499  and  _500
REMARK  202  A    between atoms: _499  and  _502
REMARK  203  A    between atoms: _502  and  _503
REMARK  204  A    between atoms: _503  and  _504
REMARK  205  A    between atoms: _507  and  _509
REMARK  206  A    between atoms: _509  and  _510
REMARK  207  A    between atoms: _513  and  _515
REMARK  208  A    between atoms: _515  and  _516
REMARK  209  A    between atoms: _515  and  _518
REMARK  210  A    between atoms: _518  and  _519
REMARK  211  A    between atoms: _521  and  _523
REMARK  212  A    between atoms: _523  and  _524
REMARK  213  A    between atoms: _526  and  _528
REMARK  214  A    between atoms: _528  and  _529
REMARK  215  A    between atoms: _528  and  _531
REMARK  216  A    between atoms: _531  and  _532
REMARK  217  A    between atoms: _535  and  _537
REMARK  218  A    between atoms: _537  and  _538
REMARK  219  A    between atoms: _540  and  _542
REMARK  220  A    between atoms: _542  and  _543
REMARK  221  A    between atoms: _542  and  _545
REMARK  222  A    between atoms: _545  and  _546
REMARK  223  A    between atoms: _551  and  _553
REMARK  224  A    between atoms: _553  and  _554
REMARK  225  A    between atoms: _553  and  _556
REMARK  226  A    between atoms: _556  and  _557
REMARK  227  A    between atoms: _557  and  _558
REMARK  228  A    between atoms: _565  and  _566
REMARK  229  A    between atoms: _566  and  _582
REMARK  230  A    between atoms: _567  and  _569
REMARK  231  A    between atoms: _569  and  _570
REMARK  232  A    between atoms: _570  and  _571
REMARK  233  A    between atoms: _575  and  _577
REMARK  234  A    between atoms: _577  and  _578
REMARK  235  A    between atoms: _577  and  _585
REMARK  236  A    between atoms: _578  and  _579
REMARK  237  A    between atoms: _579  and  _580
REMARK  238  A    between atoms: _580  and  _581
REMARK  239  A    between atoms: _581  and  _582
REMARK  240  A    between atoms: _587  and  _589
REMARK  241  A    between atoms: _589  and  _590
REMARK  242  A    between atoms: _589  and  _592
REMARK  243  A    between atoms: _592  and  _593
REMARK  244  A    between atoms: _596  and  _598
REMARK  245  A    between atoms: _598  and  _599
REMARK  246  A    between atoms: _601  and  _603
REMARK  247  A    between atoms: _603  and  _604
REMARK  248  A    between atoms: _607  and  _609
REMARK  249  A    between atoms: _609  and  _610
REMARK  250  A    between atoms: _609  and  _612
REMARK  251  A    between atoms: _612  and  _613
REMARK  252  A    between atoms: _618  and  _619
REMARK                            x       y       z     vdW  Elec       q    Type
REMARK                         _______ _______ _______ _____ _____    ______ ____
ROOT
ATOM      1  NE  ARG A   1      39.420  25.715  40.160  0.00  0.00    -0.265 N 
ATOM      2  HE  ARG A   1      40.309  25.452  39.689  0.00  0.00    +0.259 HD
ATOM      3  CZ  ARG A   1      38.284  25.327  39.586  0.00  0.00    +0.342 C 
ATOM      4  NH2 ARG A   1      37.113  25.620  40.136  0.00  0.00    -0.292 N 
ATOM      5 HH21 ARG A   1      37.076  26.158  41.025  0.00  0.00    +0.255 HD
ATOM      6 HH22 ARG A   1      36.232  25.311  39.678  0.00  0.00    +0.255 HD
ATOM      7  NH1 ARG A   1      38.327  24.647  38.449  0.00  0.00    -0.292 N 
ATOM      8 HH11 ARG A   1      39.244  24.421  38.013  0.00  0.00    +0.255 HD
ATOM      9 HH12 ARG A   1      37.444  24.340  37.993  0.00  0.00    +0.255 HD
ENDROOT
BRANCH   1  10
ATOM     10  CD  ARG A   1      39.515  26.481  41.400  0.00  0.00    +0.174 C 
BRANCH  10  11
ATOM     11  CG  ARG A   1      40.864  27.184  41.484  0.00  0.00    +0.045 C 
BRANCH  11  12
ATOM     12  CB  ARG A   1      40.933  28.203  42.621  0.00  0.00    +0.029 C 
BRANCH  12  13
ATOM     13  CA  ARG A   1      40.920  27.599  44.027  0.00  0.00    +0.133 C 
BRANCH  13  14
ATOM     14  N   ARG A   1      41.258  28.607  45.033  0.00  0.00    -0.239 NA
ATOM     15  H   ARG A   1      41.598  29.541  44.726  0.00  0.00    +0.142 HD
ENDBRANCH  13  14
BRANCH  13  16
ATOM     16  C   ARG A   1      41.853  26.389  44.117  0.00  0.00    +0.224 C 
ATOM     17  O   ARG A   1      41.408  25.244  43.995  0.00  0.00    -0.287 OA
ENDBRANCH  13  16
ENDBRANCH  12  13
ENDBRANCH  11  12
ENDBRANCH  10  11
ENDBRANCH   1  10
TORSDOF 6
REMARK  Name = ../refined-set-2016/2qrh/2qrh_pocket.pdb
REMARK  252 active torsions:
REMARK  status: ('A' for Active; 'I' for Inactive)
REMARK    1  A    between atoms: _1  and  _3
REMARK    2  A    between atoms: _3  and  _4
REMARK    3  A    between atoms: _3  and  _6
REMARK    4  A    between atoms: _6  and  _7
REMARK    5  A    between atoms: _12  and  _13
REMARK    6  A    between atoms: _15  and  _17
REMARK    7  A    between atoms: _17  and  _18
REMARK    8  A    between atoms: _17  and  _20
REMARK    9  A    between atoms: _20  and  _21
REMARK   10  A    between atoms: _21  and  _22
REMARK   11  A    between atoms: _25  and  _27
REMARK   12  A    between atoms: _27  and  _28
REMARK   13  A    between atoms: _30  and  _32
REMARK   14  A    between atoms: _32  and  _33
REMARK   15  A    between atoms: _32  and  _35
REMARK   16  A    between atoms: _35  and  _36
REMARK   17  A    between atoms: _41  and  _43
REMARK   18  A    between atoms: _43  and  _44
REMARK   19  A    between atoms: _46  and  _48
REMARK   20  A    between atoms: _48  and  _49
REMARK   21  A    between atoms: _51  and  _53
REMARK   22  A    between atoms: _53  and  _54
REMARK   23  A    between atoms: _53  and  _56
REMARK   24  A    between atoms: _56  and  _57
REMARK   25  A    between atoms: _60  and  _62
REMARK   26  A    between atoms: _62  and  _63
REMARK   27  A    between atoms: _65  and  _67
REMARK   28  A    between atoms: _67  and  _68
REMARK   29  A    between atoms: _67  and  _70
REMARK   30  A    between atoms: _70  and  _71
REMARK   31  A    between atoms: _71  and  _72
REMARK   32  A    between atoms: _72  and  _73
REMARK   33  A    between atoms: _82  and  _84
REMARK   34  A    between atoms: _84  and  _85
REMARK   35  A    between atoms: _84  and  _87
REMARK   36  A    between atoms: _87  and  _88
REMARK   37  A    between atoms: _91  and  _93
REMARK   38  A    between atoms: _93  and  _94
REMARK   39  A    between atoms: _97  and  _99
REMARK   40  A    between atoms: _99  and  _100
REMARK   41  A    between atoms: _99  and  _102
REMARK   42  A    between atoms: _102  and  _103
REMARK   43  A    between atoms: _109  and  _111
REMARK   44  A    between atoms: _111  and  _112
REMARK   45  A    between atoms: _111  and  _114
REMARK   46  A    between atoms: _114  and  _115
REMARK   47  A    between atoms: _120  and  _121
REMARK   48  A    between atoms: _124  and  _125
REMARK   49  A    between atoms: _130  and  _132
REMARK   50  A    between atoms: _132  and  _133
REMARK   51  A    between atoms: _132  and  _135
REMARK   52  A    between atoms: _135  and  _136
REMARK   53  A    between atoms: _141  and  _143
REMARK   54  A    between atoms: _143  and  _144
REMARK   55  A    between atoms: _143  and  _146
REMARK   56  A    between atoms: _146  and  _147
REMARK   57  A    between atoms: _150  and  _152
REMARK   58  A    between atoms: _152  and  _153
REMARK   59  A    between atoms: _152  and  _155
REMARK   60  A    between atoms: _155  and  _156
REMARK   61  A    between atoms: _161  and  _163
REMARK   62  A    between atoms: _163  and  _164
REMARK   63  A    between atoms: _163  and  _166
REMARK   64  A    between atoms: _166  and  _167
REMARK   65  A    between atoms: _173  and  _175
REMARK   66  A    between atoms: _175  and  _176
REMARK   67  A    between atoms: _175  and  _178
REMARK   68  A    between atoms: _178  and  _179
REMARK   69  A    between atoms: _185  and  _187
REMARK   70  A    between atoms: _187  and  _188
REMARK   71  A    between atoms: _187  and  _190
REMARK   72  A    between atoms: _190  and  _191
REMARK   73  A    between atoms: _191  and  _192
REMARK   74  A    between atoms: _195  and  _197
REMARK   75  A    between atoms: _197  and  _198
REMARK   76  A    between atoms: _197  and  _200
REMARK   77  A    between atoms: _200  and  _201
REMARK   78  A    between atoms: _201  and  _202
REMARK   79  A    between atoms: _202  and  _203
REMARK   80  A    between atoms: _212  and  _214
REMARK   81  A    between atoms: _214  and  _215
REMARK   82  A    between atoms: _214  and  _217
REMARK   83  A    between atoms: _217  and  _218
REMARK   84  A    between atoms: _223  and  _225
REMARK   85  A    between atoms: _225  and  _226
REMARK   86  A    between atoms: _225  and  _228
REMARK   87  A    between atoms: _228  and  _229
REMARK   88  A    between atoms: _232  and  _234
REMARK   89  A    between atoms: _234  and  _235
REMARK   90  A    between atoms: _234  and  _237
REMARK   91  A    between atoms: _237  and  _238
REMARK   92  A    between atoms: _241  and  _243
REMARK   93  A    between atoms: _243  and  _244
REMARK   94  A    between atoms: _243  and  _246
REMARK   95  A    between atoms: _246  and  _247
REMARK   96  A    between atoms: _252  and  _254
REMARK   97  A    between atoms: _254  and  _255
REMARK   98  A    between atoms: _254  and  _257
REMARK   99  A    between atoms: _257  and  _258
REMARK  100  A    between atoms: _261  and  _263
REMARK  101  A    between atoms: _263  and  _264
REMARK  102  A    between atoms: _263  and  _266
REMARK  103  A    between atoms: _266  and  _267
REMARK  104  A    between atoms: _272  and  _274
REMARK  105  A    between atoms: _274  and  _275
REMARK  106  A    between atoms: _274  and  _277
REMARK  107  A    between atoms: _277  and  _278
REMARK  108  A    between atoms: _283  and  _285
REMARK  109  A    between atoms: _285  and  _286
REMARK  110  A    between atoms: _285  and  _288
REMARK  111  A    between atoms: _288  and  _289
REMARK  112  A    between atoms: _292  and  _294
REMARK  113  A    between atoms: _294  and  _295
REMARK  114  A    between atoms: _294  and  _297
REMARK  115  A    between atoms: _300  and  _302
REMARK  116  A    between atoms: _302  and  _303
REMARK  117  A    between atoms: _302  and  _305
REMARK  118  A    between atoms: _305  and  _306
REMARK  119  A    between atoms: _309  and  _311
REMARK  120  A    between atoms: _311  and  _312
REMARK  121  A    between atoms: _311  and  _314
REMARK  122  A    between atoms: _314  and  _315
REMARK  123  A    between atoms: _315  and  _316
REMARK  124  A    between atoms: _319  and  _321
REMARK  125  A    between atoms: _321  and  _322
REMARK  126  A    between atoms: _325  and  _327
REMARK  127  A    between atoms: _327  and  _328
REMARK  128  A    between atoms: _327  and  _330
REMARK  129  A    between atoms: _330  and  _331
REMARK  130  A    between atoms: _334  and  _336
REMARK  131  A    between atoms: _336  and  _337
REMARK  132  A    between atoms: _336  and  _339
REMARK  133  A    between atoms: _339  and  _340
REMARK  134  A    between atoms: _340  and  _341
REMARK  135  A    between atoms: _344  and  _346
REMARK  136  A    between atoms: _346  and  _347
REMARK  137  A    between atoms: _346  and  _349
REMARK  138  A    between atoms: _349  and  _350
REMARK  139  A    between atoms: _355  and  _357
REMARK  140  A    between atoms: _357  and  _358
REMARK  141  A    between atoms: _360  and  _362
REMARK  142  A    between atoms: _362  and  _363
REMARK  143  A    between atoms: _362  and  _365
REMARK  144  A    between atoms: _368  and  _370
REMARK  145  A    between atoms: _370  and  _371
REMARK  146  A    between atoms: _374  and  _376
REMARK  147  A    between atoms: _376  and  _377
REMARK  148  A    between atoms: _376  and  _379
REMARK  149  A    between atoms: _379  and  _380
REMARK  150  A    between atoms: _385  and  _387
REMARK  151  A    between atoms: _387  and  _388
REMARK  152  A    between atoms: _387  and  _390
REMARK  153  A    between atoms: _390  and  _391
REMARK  154  A    between atoms: _391  and  _392
REMARK  155  A    between atoms: _392  and  _393
REMARK  156  A    between atoms: _393  and  _394
REMARK  157  A    between atoms: _398  and  _400
REMARK  158  A    between atoms: _400  and  _401
REMARK  159  A    between atoms: _400  and  _403
REMARK  160  A    between atoms: _403  and  _404
REMARK  161  A    between atoms: _407  and  _409
REMARK  162  A    between atoms: _409  and  _410
REMARK  163  A    between atoms: _409  and  _412
REMARK  164  A    between atoms: _412  and  _413
REMARK  165  A    between atoms: _418  and  _420
REMARK  166  A    between atoms: _420  and  _421
REMARK  167  A    between atoms: _423  and  _425
REMARK  168  A    between atoms: _425  and  _426
REMARK  169  A    between atoms: _425  and  _428
REMARK  170  A    between atoms: _428  and  _429
REMARK  171  A    between atoms: _429  and  _430
REMARK  172  A    between atoms: _430  and  _431
REMARK  173  A    between atoms: _431  and  _432
REMARK  174  A    between atoms: _436  and  _438
REMARK  175  A    between atoms: _438  and  _439
REMARK  176  A    between atoms: _438  and  _441
REMARK  177  A    between atoms: _441  and  _442
REMARK  178  A    between atoms: _442  and  _443
REMARK  179  A    between atoms: _443  and  _444
REMARK  180  A    between atoms: _453  and  _455
REMARK  181  A    between atoms: _455  and  _456
REMARK  182  A    between atoms: _455  and  _458
REMARK  183  A    between atoms: _458  and  _459
REMARK  184  A    between atoms: _464  and  _465
REMARK  185  A    between atoms: _467  and  _469
REMARK  186  A    between atoms: _469  and  _470
REMARK  187  A    between atoms: _469  and  _472
REMARK  188  A    between atoms: _472  and  _473
REMARK  189  A    between atoms: _473  and  _474
REMARK  190  A    between atoms: _474  and  _475
REMARK  191  A    between atoms: _475  and  _476
REMARK  192  A    between atoms: _480  and  _482
REMARK  193  A    between atoms: _482  and  _483
REMARK  194  A    between atoms: _482  and  _485
REMARK  195  A    between atoms: _485  and  _486
REMARK  196  A    between atoms: _488  and  _490
REMARK  197  A    between atoms: _490  and  _491
REMARK  198  A    between atoms: _490  and  _493
REMARK  199  A    between atoms: _493  and  _494
REMARK  200  A    between atoms: _497  and  _499
REMARK  201  A    between atoms: _499  and  _500
REMARK  202  A    between atoms: _499  and  _502
REMARK  203  A    between atoms: _502  and  _503
REMARK  204  A    between atoms: _503  and  _504
REMARK  205  A    between atoms: _507  and  _509
REMARK  206  A    between atoms: _509  and  _510
REMARK  207  A    between atoms: _513  and  _515
REMARK  208  A    between atoms: _515  and  _516
REMARK  209  A    between atoms: _515  and  _518
REMARK  210  A    between atoms: _518  and  _519
REMARK  211  A    between atoms: _521  and  _523
REMARK  212  A    between atoms: _523  and  _524
REMARK  213  A    between atoms: _526  and  _528
REMARK  214  A    between atoms: _528  and  _529
REMARK  215  A    between atoms: _528  and  _531
REMARK  216  A    between atoms: _531  and  _532
REMARK  217  A    between atoms: _535  and  _537
REMARK  218  A    between atoms: _537  and  _538
REMARK  219  A    between atoms: _540  and  _542
REMARK  220  A    between atoms: _542  and  _543
REMARK  221  A    between atoms: _542  and  _545
REMARK  222  A    between atoms: _545  and  _546
REMARK  223  A    between atoms: _551  and  _553
REMARK  224  A    between atoms: _553  and  _554
REMARK  225  A    between atoms: _553  and  _556
REMARK  226  A    between atoms: _556  and  _557
REMARK  227  A    between atoms: _557  and  _558
REMARK  228  A    between atoms: _565  and  _566
REMARK  229  A    between atoms: _566  and  _582
REMARK  230  A    between atoms: _567  and  _569
REMARK  231  A    between atoms: _569  and  _570
REMARK  232  A    between atoms: _570  and  _571
REMARK  233  A    between atoms: _575  and  _577
REMARK  234  A    between atoms: _577  and  _578
REMARK  235  A    between atoms: _577  and  _585
REMARK  236  A    between atoms: _578  and  _579
REMARK  237  A    between atoms: _579  and  _580
REMARK  238  A    between atoms: _580  and  _581
REMARK  239  A    between atoms: _581  and  _582
REMARK  240  A    between atoms: _587  and  _589
REMARK  241  A    between atoms: _589  and  _590
REMARK  242  A    between atoms: _589  and  _592
REMARK  243  A    between atoms: _592  and  _593
REMARK  244  A    between atoms: _596  and  _598
REMARK  245  A    between atoms: _598  and  _599
REMARK  246  A    between atoms: _601  and  _603
REMARK  247  A    between atoms: _603  and  _604
REMARK  248  A    between atoms: _607  and  _609
REMARK  249  A    between atoms: _609  and  _610
REMARK  250  A    between atoms: _609  and  _612
REMARK  251  A    between atoms: _612  and  _613
REMARK  252  A    between atoms: _618  and  _619
REMARK                            x       y       z     vdW  Elec       q    Type
REMARK                         _______ _______ _______ _____ _____    ______ ____
ROOT
ATOM      1  C   ASP A   2      41.177  18.146  33.918  0.00  0.00    +0.241 C 
ATOM      2  O   ASP A   2      41.330  17.126  34.588  0.00  0.00    -0.273 OA
ATOM      3  N   THR A   3      41.975  19.206  34.032  0.00  0.00    -0.295 N 
ATOM      4  H   THR A   3      41.766  20.058  33.473  0.00  0.00    +0.150 HD
ENDROOT
BRANCH   1   5
ATOM      5  CA  ASP A   2      40.040  18.225  32.885  0.00  0.00    +0.160 C 
BRANCH   5   8
ATOM      6  C   ASN A   1      38.264  17.133  34.233  0.00  0.00    +0.239 C 
ATOM      7  O   ASN A   1      38.178  18.050  35.057  0.00  0.00    -0.274 OA
ATOM      8  N   ASP A   2      39.014  17.199  33.131  0.00  0.00    -0.297 N 
ATOM      9  H   ASP A   2      38.863  16.477  32.397  0.00  0.00    +0.150 HD
BRANCH   6  10
ATOM     10  CA  ASN A   1      37.494  15.820  34.428  0.00  0.00    +0.154 C 
BRANCH  10  11
ATOM     11  N   ASN A   1      38.294  14.896  35.243  0.00  0.00    -0.238 NA
ATOM     12  H   ASN A   1      38.076  14.807  36.256  0.00  0.00    +0.142 HD
ENDBRANCH  10  11
BRANCH  10  13
ATOM     13  CB  ASN A   1      36.124  16.067  35.084  0.00  0.00    +0.111 C 
BRANCH  13  14
ATOM     14  CG  ASN A   1      35.065  16.543  34.093  0.00  0.00    +0.221 C 
ATOM     15  ND2 ASN A   1      34.019  17.191  34.606  0.00  0.00    -0.329 N 
ATOM     16 HD21 ASN A   1      33.961  17.355  35.631  0.00  0.00    +0.145 HD
ATOM     17 HD22 ASN A   1      33.261  17.532  33.981  0.00  0.00    +0.145 HD
ATOM     18  OD1 ASN A   1      35.178  16.325  32.889  0.00  0.00    -0.275 OA
ENDBRANCH  13  14
ENDBRANCH  10  13
ENDBRANCH   6  10
ENDBRANCH   5   8
BRANCH   5  19
ATOM     19  CB  ASP A   2      39.445  19.637  32.777  0.00  0.00    +0.143 C 
BRANCH  19  20
ATOM     20  CG  ASP A   2      40.183  20.495  31.764  0.00  0.00    +0.367 C 
ATOM     21  OD2 ASP A   2      41.058  21.278  32.185  0.00  0.00    -0.246 OA
ATOM     22  OD1 ASP A   2      39.908  20.375  30.547  0.00  0.00    -0.246 OA
ENDBRANCH  19  20
ENDBRANCH   5  19
ENDBRANCH   1   5
BRANCH   3  23
ATOM     23  CA  THR A   3      43.145  19.207  34.926  0.00  0.00    +0.176 C 
BRANCH  23  24
ATOM     24  C   THR A   3      42.785  19.635  36.346  0.00  0.00    +0.243 C 
ATOM     25  O   THR A   3      43.633  19.641  37.238  0.00  0.00    -0.273 OA
ATOM     26  N   HIS A   4      41.525  19.996  36.564  0.00  0.00    -0.298 N 
ATOM     27  H   HIS A   4      40.820  19.911  35.805  0.00  0.00    +0.150 HD
BRANCH  26  28
ATOM     28  CA  HIS A   4      41.132  20.514  37.875  0.00  0.00    +0.143 C 
BRANCH  28  29
ATOM     29  C   HIS A   4      41.462  19.565  39.042  0.00  0.00    +0.227 C 
ATOM     30  O   HIS A   4      41.934  20.024  40.081  0.00  0.00    -0.286 OA
ENDBRANCH  28  29
BRANCH  28  31
ATOM     31  CB  HIS A   4      39.671  20.994  37.884  0.00  0.00    +0.075 C 
BRANCH  31  32
ATOM     32  CG  HIS A   4      39.308  21.838  36.697  0.00  0.00    +0.082 A 
ATOM     33  ND1 HIS A   4      38.039  21.861  36.160  0.00  0.00    -0.227 NA
ATOM     34  CE1 HIS A   4      38.017  22.681  35.123  0.00  0.00    +0.199 A 
ATOM     35  NE2 HIS A   4      39.229  23.182  34.961  0.00  0.00    -0.221 NA
ATOM     36  CD2 HIS A   4      40.055  22.671  35.931  0.00  0.00    +0.115 A 
ENDBRANCH  31  32
ENDBRANCH  28  31
ENDBRANCH  26  28
ENDBRANCH  23  24
BRANCH  23  37
ATOM     37  CB  THR A   3      44.279  20.131  34.408  0.00  0.00    +0.137 C 
ATOM     38  CG2 THR A   3      44.799  19.654  33.052  0.00  0.00    +0.034 C 
BRANCH  37  39
ATOM     39  OG1 THR A   3      43.795  21.471  34.288  0.00  0.00    -0.382 OA
ATOM     40  HG1 THR A   3      43.490  21.791  35.174  0.00  0.00    +0.210 HD
ENDBRANCH  37  39
ENDBRANCH  23  37
ENDBRANCH   3  23
TORSDOF 16
REMARK  Name = ../refined-set-2016/2qrh/2qrh_pocket.pdb
REMARK  252 active torsions:
REMARK  status: ('A' for Active; 'I' for Inactive)
REMARK    1  A    between atoms: _1  and  _3
REMARK    2  A    between atoms: _3  and  _4
REMARK    3  A    between atoms: _3  and  _6
REMARK    4  A    between atoms: _6  and  _7
REMARK    5  A    between atoms: _12  and  _13
REMARK    6  A    between atoms: _15  and  _17
REMARK    7  A    between atoms: _17  and  _18
REMARK    8  A    between atoms: _17  and  _20
REMARK    9  A    between atoms: _20  and  _21
REMARK   10  A    between atoms: _21  and  _22
REMARK   11  A    between atoms: _25  and  _27
REMARK   12  A    between atoms: _27  and  _28
REMARK   13  A    between atoms: _30  and  _32
REMARK   14  A    between atoms: _32  and  _33
REMARK   15  A    between atoms: _32  and  _35
REMARK   16  A    between atoms: _35  and  _36
REMARK   17  A    between atoms: _41  and  _43
REMARK   18  A    between atoms: _43  and  _44
REMARK   19  A    between atoms: _46  and  _48
REMARK   20  A    between atoms: _48  and  _49
REMARK   21  A    between atoms: _51  and  _53
REMARK   22  A    between atoms: _53  and  _54
REMARK   23  A    between atoms: _53  and  _56
REMARK   24  A    between atoms: _56  and  _57
REMARK   25  A    between atoms: _60  and  _62
REMARK   26  A    between atoms: _62  and  _63
REMARK   27  A    between atoms: _65  and  _67
REMARK   28  A    between atoms: _67  and  _68
REMARK   29  A    between atoms: _67  and  _70
REMARK   30  A    between atoms: _70  and  _71
REMARK   31  A    between atoms: _71  and  _72
REMARK   32  A    between atoms: _72  and  _73
REMARK   33  A    between atoms: _82  and  _84
REMARK   34  A    between atoms: _84  and  _85
REMARK   35  A    between atoms: _84  and  _87
REMARK   36  A    between atoms: _87  and  _88
REMARK   37  A    between atoms: _91  and  _93
REMARK   38  A    between atoms: _93  and  _94
REMARK   39  A    between atoms: _97  and  _99
REMARK   40  A    between atoms: _99  and  _100
REMARK   41  A    between atoms: _99  and  _102
REMARK   42  A    between atoms: _102  and  _103
REMARK   43  A    between atoms: _109  and  _111
REMARK   44  A    between atoms: _111  and  _112
REMARK   45  A    between atoms: _111  and  _114
REMARK   46  A    between atoms: _114  and  _115
REMARK   47  A    between atoms: _120  and  _121
REMARK   48  A    between atoms: _124  and  _125
REMARK   49  A    between atoms: _130  and  _132
REMARK   50  A    between atoms: _132  and  _133
REMARK   51  A    between atoms: _132  and  _135
REMARK   52  A    between atoms: _135  and  _136
REMARK   53  A    between atoms: _141  and  _143
REMARK   54  A    between atoms: _143  and  _144
REMARK   55  A    between atoms: _143  and  _146
REMARK   56  A    between atoms: _146  and  _147
REMARK   57  A    between atoms: _150  and  _152
REMARK   58  A    between atoms: _152  and  _153
REMARK   59  A    between atoms: _152  and  _155
REMARK   60  A    between atoms: _155  and  _156
REMARK   61  A    between atoms: _161  and  _163
REMARK   62  A    between atoms: _163  and  _164
REMARK   63  A    between atoms: _163  and  _166
REMARK   64  A    between atoms: _166  and  _167
REMARK   65  A    between atoms: _173  and  _175
REMARK   66  A    between atoms: _175  and  _176
REMARK   67  A    between atoms: _175  and  _178
REMARK   68  A    between atoms: _178  and  _179
REMARK   69  A    between atoms: _185  and  _187
REMARK   70  A    between atoms: _187  and  _188
REMARK   71  A    between atoms: _187  and  _190
REMARK   72  A    between atoms: _190  and  _191
REMARK   73  A    between atoms: _191  and  _192
REMARK   74  A    between atoms: _195  and  _197
REMARK   75  A    between atoms: _197  and  _198
REMARK   76  A    between atoms: _197  and  _200
REMARK   77  A    between atoms: _200  and  _201
REMARK   78  A    between atoms: _201  and  _202
REMARK   79  A    between atoms: _202  and  _203
REMARK   80  A    between atoms: _212  and  _214
REMARK   81  A    between atoms: _214  and  _215
REMARK   82  A    between atoms: _214  and  _217
REMARK   83  A    between atoms: _217  and  _218
REMARK   84  A    between atoms: _223  and  _225
REMARK   85  A    between atoms: _225  and  _226
REMARK   86  A    between atoms: _225  and  _228
REMARK   87  A    between atoms: _228  and  _229
REMARK   88  A    between atoms: _232  and  _234
REMARK   89  A    between atoms: _234  and  _235
REMARK   90  A    between atoms: _234  and  _237
REMARK   91  A    between atoms: _237  and  _238
REMARK   92  A    between atoms: _241  and  _243
REMARK   93  A    between atoms: _243  and  _244
REMARK   94  A    between atoms: _243  and  _246
REMARK   95  A    between atoms: _246  and  _247
REMARK   96  A    between atoms: _252  and  _254
REMARK   97  A    between atoms: _254  and  _255
REMARK   98  A    between atoms: _254  and  _257
REMARK   99  A    between atoms: _257  and  _258
REMARK  100  A    between atoms: _261  and  _263
REMARK  101  A    between atoms: _263  and  _264
REMARK  102  A    between atoms: _263  and  _266
REMARK  103  A    between atoms: _266  and  _267
REMARK  104  A    between atoms: _272  and  _274
REMARK  105  A    between atoms: _274  and  _275
REMARK  106  A    between atoms: _274  and  _277
REMARK  107  A    between atoms: _277  and  _278
REMARK  108  A    between atoms: _283  and  _285
REMARK  109  A    between atoms: _285  and  _286
REMARK  110  A    between atoms: _285  and  _288
REMARK  111  A    between atoms: _288  and  _289
REMARK  112  A    between atoms: _292  and  _294
REMARK  113  A    between atoms: _294  and  _295
REMARK  114  A    between atoms: _294  and  _297
REMARK  115  A    between atoms: _300  and  _302
REMARK  116  A    between atoms: _302  and  _303
REMARK  117  A    between atoms: _302  and  _305
REMARK  118  A    between atoms: _305  and  _306
REMARK  119  A    between atoms: _309  and  _311
REMARK  120  A    between atoms: _311  and  _312
REMARK  121  A    between atoms: _311  and  _314
REMARK  122  A    between atoms: _314  and  _315
REMARK  123  A    between atoms: _315  and  _316
REMARK  124  A    between atoms: _319  and  _321
REMARK  125  A    between atoms: _321  and  _322
REMARK  126  A    between atoms: _325  and  _327
REMARK  127  A    between atoms: _327  and  _328
REMARK  128  A    between atoms: _327  and  _330
REMARK  129  A    between atoms: _330  and  _331
REMARK  130  A    between atoms: _334  and  _336
REMARK  131  A    between atoms: _336  and  _337
REMARK  132  A    between atoms: _336  and  _339
REMARK  133  A    between atoms: _339  and  _340
REMARK  134  A    between atoms: _340  and  _341
REMARK  135  A    between atoms: _344  and  _346
REMARK  136  A    between atoms: _346  and  _347
REMARK  137  A    between atoms: _346  and  _349
REMARK  138  A    between atoms: _349  and  _350
REMARK  139  A    between atoms: _355  and  _357
REMARK  140  A    between atoms: _357  and  _358
REMARK  141  A    between atoms: _360  and  _362
REMARK  142  A    between atoms: _362  and  _363
REMARK  143  A    between atoms: _362  and  _365
REMARK  144  A    between atoms: _368  and  _370
REMARK  145  A    between atoms: _370  and  _371
REMARK  146  A    between atoms: _374  and  _376
REMARK  147  A    between atoms: _376  and  _377
REMARK  148  A    between atoms: _376  and  _379
REMARK  149  A    between atoms: _379  and  _380
REMARK  150  A    between atoms: _385  and  _387
REMARK  151  A    between atoms: _387  and  _388
REMARK  152  A    between atoms: _387  and  _390
REMARK  153  A    between atoms: _390  and  _391
REMARK  154  A    between atoms: _391  and  _392
REMARK  155  A    between atoms: _392  and  _393
REMARK  156  A    between atoms: _393  and  _394
REMARK  157  A    between atoms: _398  and  _400
REMARK  158  A    between atoms: _400  and  _401
REMARK  159  A    between atoms: _400  and  _403
REMARK  160  A    between atoms: _403  and  _404
REMARK  161  A    between atoms: _407  and  _409
REMARK  162  A    between atoms: _409  and  _410
REMARK  163  A    between atoms: _409  and  _412
REMARK  164  A    between atoms: _412  and  _413
REMARK  165  A    between atoms: _418  and  _420
REMARK  166  A    between atoms: _420  and  _421
REMARK  167  A    between atoms: _423  and  _425
REMARK  168  A    between atoms: _425  and  _426
REMARK  169  A    between atoms: _425  and  _428
REMARK  170  A    between atoms: _428  and  _429
REMARK  171  A    between atoms: _429  and  _430
REMARK  172  A    between atoms: _430  and  _431
REMARK  173  A    between atoms: _431  and  _432
REMARK  174  A    between atoms: _436  and  _438
REMARK  175  A    between atoms: _438  and  _439
REMARK  176  A    between atoms: _438  and  _441
REMARK  177  A    between atoms: _441  and  _442
REMARK  178  A    between atoms: _442  and  _443
REMARK  179  A    between atoms: _443  and  _444
REMARK  180  A    between atoms: _453  and  _455
REMARK  181  A    between atoms: _455  and  _456
REMARK  182  A    between atoms: _455  and  _458
REMARK  183  A    between atoms: _458  and  _459
REMARK  184  A    between atoms: _464  and  _465
REMARK  185  A    between atoms: _467  and  _469
REMARK  186  A    between atoms: _469  and  _470
REMARK  187  A    between atoms: _469  and  _472
REMARK  188  A    between atoms: _472  and  _473
REMARK  189  A    between atoms: _473  and  _474
REMARK  190  A    between atoms: _474  and  _475
REMARK  191  A    between atoms: _475  and  _476
REMARK  192  A    between atoms: _480  and  _482
REMARK  193  A    between atoms: _482  and  _483
REMARK  194  A    between atoms: _482  and  _485
REMARK  195  A    between atoms: _485  and  _486
REMARK  196  A    between atoms: _488  and  _490
REMARK  197  A    between atoms: _490  and  _491
REMARK  198  A    between atoms: _490  and  _493
REMARK  199  A    between atoms: _493  and  _494
REMARK  200  A    between atoms: _497  and  _499
REMARK  201  A    between atoms: _499  and  _500
REMARK  202  A    between atoms: _499  and  _502
REMARK  203  A    between atoms: _502  and  _503
REMARK  204  A    between atoms: _503  and  _504
REMARK  205  A    between atoms: _507  and  _509
REMARK  206  A    between atoms: _509  and  _510
REMARK  207  A    between atoms: _513  and  _515
REMARK  208  A    between atoms: _515  and  _516
REMARK  209  A    between atoms: _515  and  _518
REMARK  210  A    between atoms: _518  and  _519
REMARK  211  A    between atoms: _521  and  _523
REMARK  212  A    between atoms: _523  and  _524
REMARK  213  A    between atoms: _526  and  _528
REMARK  214  A    between atoms: _528  and  _529
REMARK  215  A    between atoms: _528  and  _531
REMARK  216  A    between atoms: _531  and  _532
REMARK  217  A    between atoms: _535  and  _537
REMARK  218  A    between atoms: _537  and  _538
REMARK  219  A    between atoms: _540  and  _542
REMARK  220  A    between atoms: _542  and  _543
REMARK  221  A    between atoms: _542  and  _545
REMARK  222  A    between atoms: _545  and  _546
REMARK  223  A    between atoms: _551  and  _553
REMARK  224  A    between atoms: _553  and  _554
REMARK  225  A    between atoms: _553  and  _556
REMARK  226  A    between atoms: _556  and  _557
REMARK  227  A    between atoms: _557  and  _558
REMARK  228  A    between atoms: _565  and  _566
REMARK  229  A    between atoms: _566  and  _582
REMARK  230  A    between atoms: _567  and  _569
REMARK  231  A    between atoms: _569  and  _570
REMARK  232  A    between atoms: _570  and  _571
REMARK  233  A    between atoms: _575  and  _577
REMARK  234  A    between atoms: _577  and  _578
REMARK  235  A    between atoms: _577  and  _585
REMARK  236  A    between atoms: _578  and  _579
REMARK  237  A    between atoms: _579  and  _580
REMARK  238  A    between atoms: _580  and  _581
REMARK  239  A    between atoms: _581  and  _582
REMARK  240  A    between atoms: _587  and  _589
REMARK  241  A    between atoms: _589  and  _590
REMARK  242  A    between atoms: _589  and  _592
REMARK  243  A    between atoms: _592  and  _593
REMARK  244  A    between atoms: _596  and  _598
REMARK  245  A    between atoms: _598  and  _599
REMARK  246  A    between atoms: _601  and  _603
REMARK  247  A    between atoms: _603  and  _604
REMARK  248  A    between atoms: _607  and  _609
REMARK  249  A    between atoms: _609  and  _610
REMARK  250  A    between atoms: _609  and  _612
REMARK  251  A    between atoms: _612  and  _613
REMARK  252  A    between atoms: _618  and  _619
REMARK                            x       y       z     vdW  Elec       q    Type
REMARK                         _______ _______ _______ _____ _____    ______ ____
ROOT
ATOM      1  CA  HIS A   3      37.923  19.824  27.425  0.00  0.00    +0.155 C 
ENDROOT
BRANCH   1   3
ATOM      2  C   ASN A   2      39.602  18.036  27.404  0.00  0.00    +0.241 C 
ATOM      3  N   HIS A   3      39.193  19.224  27.850  0.00  0.00    -0.297 N 
ATOM      4  H   HIS A   3      39.794  19.743  28.522  0.00  0.00    +0.150 HD
ATOM      5  O   ASN A   2      39.015  17.404  26.519  0.00  0.00    -0.273 OA
BRANCH   2   6
ATOM      6  CA  ASN A   2      40.868  17.470  28.036  0.00  0.00    +0.158 C 
BRANCH   6   9
ATOM      7  C   THR A   1      40.233  15.626  29.514  0.00  0.00    +0.241 C 
ATOM      8  O   THR A   1      40.066  16.361  30.488  0.00  0.00    -0.274 OA
ATOM      9  N   ASN A   2      40.667  16.058  28.334  0.00  0.00    -0.297 N 
ATOM     10  H   ASN A   2      40.872  15.358  27.592  0.00  0.00    +0.150 HD
BRANCH   7  11
ATOM     11  CA  THR A   1      39.952  14.136  29.620  0.00  0.00    +0.172 C 
BRANCH  11  12
ATOM     12  N   THR A   1      40.763  13.572  30.693  0.00  0.00    -0.236 NA
ATOM     13  H   THR A   1      40.533  13.808  31.679  0.00  0.00    +0.142 HD
ENDBRANCH  11  12
BRANCH  11  14
ATOM     14  CB  THR A   1      38.442  13.919  29.862  0.00  0.00    +0.135 C 
ATOM     15  CG2 THR A   1      37.634  14.436  28.674  0.00  0.00    +0.034 C 
BRANCH  14  16
ATOM     16  OG1 THR A   1      38.175  12.523  30.041  0.00  0.00    -0.383 OA
ATOM     17  HG1 THR A   1      38.451  12.029  29.229  0.00  0.00    +0.210 HD
ENDBRANCH  14  16
ENDBRANCH  11  14
ENDBRANCH   7  11
ENDBRANCH   6   9
BRANCH   6  18
ATOM     18  CB  ASN A   2      42.071  17.639  27.097  0.00  0.00    +0.114 C 
BRANCH  18  19
ATOM     19  CG  ASN A   2      42.210  19.056  26.566  0.00  0.00    +0.222 C 
ATOM     20  ND2 ASN A   2      43.077  19.843  27.194  0.00  0.00    -0.329 N 
ATOM     21 HD21 ASN A   2      43.611  19.481  28.010  0.00  0.00    +0.145 HD
ATOM     22 HD22 ASN A   2      43.221  20.821  26.870  0.00  0.00    +0.145 HD
ATOM     23  OD1 ASN A   2      41.553  19.434  25.597  0.00  0.00    -0.275 OA
ENDBRANCH  18  19
ENDBRANCH   6  18
ENDBRANCH   2   6
ENDBRANCH   1   3
BRANCH   1  24
ATOM     24  C   HIS A   3      38.060  21.148  26.661  0.00  0.00    +0.241 C 
ATOM     25  N   THR A   4      39.287  21.626  26.457  0.00  0.00    -0.295 N 
ATOM     26  H   THR A   4      40.113  21.076  26.770  0.00  0.00    +0.150 HD
ATOM     27  O   HIS A   3      37.056  21.734  26.263  0.00  0.00    -0.273 OA
BRANCH  25  28
ATOM     28  CA  THR A   4      39.484  22.921  25.795  0.00  0.00    +0.176 C 
BRANCH  28  29
ATOM     29  C   THR A   4      40.910  23.129  25.296  0.00  0.00    +0.243 C 
ATOM     30  O   THR A   4      41.859  22.581  25.861  0.00  0.00    -0.273 OA
ATOM     31  N   VAL A   5      41.046  23.921  24.233  0.00  0.00    -0.297 N 
ATOM     32  H   VAL A   5      40.192  24.301  23.777  0.00  0.00    +0.150 HD
BRANCH  31  33
ATOM     33  CA  VAL A   5      42.360  24.276  23.684  0.00  0.00    +0.149 C 
BRANCH  33  34
ATOM     34  C   VAL A   5      42.666  25.768  23.815  0.00  0.00    +0.241 C 
ATOM     35  N   LEU A   6      41.727  26.533  24.367  0.00  0.00    -0.298 N 
ATOM     36  H   LEU A   6      40.827  26.103  24.661  0.00  0.00    +0.150 HD
ATOM     37  O   VAL A   5      43.737  26.218  23.407  0.00  0.00    -0.273 OA
BRANCH  35  38
ATOM     38  CA  LEU A   6      41.937  27.965  24.568  0.00  0.00    +0.137 C 
BRANCH  38  39
ATOM     39  C   LEU A   6      43.061  28.189  25.582  0.00  0.00    +0.227 C 
ATOM     40  O   LEU A   6      42.967  27.717  26.715  0.00  0.00    -0.286 OA
ENDBRANCH  38  39
BRANCH  38  41
ATOM     41  CB  LEU A   6      40.648  28.650  25.032  0.00  0.00    +0.028 C 
BRANCH  41  42
ATOM     42  CG  LEU A   6      39.465  28.647  24.057  0.00  0.00    +0.002 C 
ATOM     43  CD2 LEU A   6      38.174  28.930  24.805  0.00  0.00    +0.000 C 
ATOM     44  CD1 LEU A   6      39.677  29.654  22.927  0.00  0.00    +0.000 C 
ENDBRANCH  41  42
ENDBRANCH  38  41
ENDBRANCH  35  38
ENDBRANCH  33  34
BRANCH  33  45
ATOM     45  CB  VAL A   5      42.526  23.856  22.190  0.00  0.00    +0.027 C 
ATOM     46  CG2 VAL A   5      42.336  22.352  22.016  0.00  0.00    +0.002 C 
ATOM     47  CG1 VAL A   5      41.582  24.655  21.282  0.00  0.00    +0.002 C 
ENDBRANCH  33  45
ENDBRANCH  31  33
ENDBRANCH  28  29
BRANCH  28  48
ATOM     48  CB  THR A   4      39.050  24.107  26.711  0.00  0.00    +0.137 C 
ATOM     49  CG2 THR A   4      39.920  24.197  27.964  0.00  0.00    +0.034 C 
BRANCH  48  50
ATOM     50  OG1 THR A   4      39.092  25.342  25.978  0.00  0.00    -0.382 OA
ATOM     51  HG1 THR A   4      38.815  26.085  26.570  0.00  0.00    +0.210 HD
ENDBRANCH  48  50
ENDBRANCH  28  48
ENDBRANCH  25  28
ENDBRANCH   1  24
BRANCH   1  52
ATOM     52  CB  HIS A   3      37.001  20.041  28.635  0.00  0.00    +0.076 C 
BRANCH  52  53
ATOM     53  CG  HIS A   3      36.561  18.779  29.309  0.00  0.00    +0.082 A 
ATOM     54  CD2 HIS A   3      37.138  18.045  30.290  0.00  0.00    +0.115 A 
ATOM     55  NE2 HIS A   3      36.301  16.988  30.552  0.00  0.00    -0.221 NA
ATOM     56  CE1 HIS A   3      35.243  17.073  29.764  0.00  0.00    +0.199 A 
ATOM     57  ND1 HIS A   3      35.373  18.147  29.006  0.00  0.00    -0.227 NA
ENDBRANCH  52  53
ENDBRANCH   1  52
TORSDOF 23
REMARK  Name = ../refined-set-2016/2qrh/2qrh_pocket.pdb
REMARK  252 active torsions:
REMARK  status: ('A' for Active; 'I' for Inactive)
REMARK    1  A    between atoms: _1  and  _3
REMARK    2  A    between atoms: _3  and  _4
REMARK    3  A    between atoms: _3  and  _6
REMARK    4  A    between atoms: _6  and  _7
REMARK    5  A    between atoms: _12  and  _13
REMARK    6  A    between atoms: _15  and  _17
REMARK    7  A    between atoms: _17  and  _18
REMARK    8  A    between atoms: _17  and  _20
REMARK    9  A    between atoms: _20  and  _21
REMARK   10  A    between atoms: _21  and  _22
REMARK   11  A    between atoms: _25  and  _27
REMARK   12  A    between atoms: _27  and  _28
REMARK   13  A    between atoms: _30  and  _32
REMARK   14  A    between atoms: _32  and  _33
REMARK   15  A    between atoms: _32  and  _35
REMARK   16  A    between atoms: _35  and  _36
REMARK   17  A    between atoms: _41  and  _43
REMARK   18  A    between atoms: _43  and  _44
REMARK   19  A    between atoms: _46  and  _48
REMARK   20  A    between atoms: _48  and  _49
REMARK   21  A    between atoms: _51  and  _53
REMARK   22  A    between atoms: _53  and  _54
REMARK   23  A    between atoms: _53  and  _56
REMARK   24  A    between atoms: _56  and  _57
REMARK   25  A    between atoms: _60  and  _62
REMARK   26  A    between atoms: _62  and  _63
REMARK   27  A    between atoms: _65  and  _67
REMARK   28  A    between atoms: _67  and  _68
REMARK   29  A    between atoms: _67  and  _70
REMARK   30  A    between atoms: _70  and  _71
REMARK   31  A    between atoms: _71  and  _72
REMARK   32  A    between atoms: _72  and  _73
REMARK   33  A    between atoms: _82  and  _84
REMARK   34  A    between atoms: _84  and  _85
REMARK   35  A    between atoms: _84  and  _87
REMARK   36  A    between atoms: _87  and  _88
REMARK   37  A    between atoms: _91  and  _93
REMARK   38  A    between atoms: _93  and  _94
REMARK   39  A    between atoms: _97  and  _99
REMARK   40  A    between atoms: _99  and  _100
REMARK   41  A    between atoms: _99  and  _102
REMARK   42  A    between atoms: _102  and  _103
REMARK   43  A    between atoms: _109  and  _111
REMARK   44  A    between atoms: _111  and  _112
REMARK   45  A    between atoms: _111  and  _114
REMARK   46  A    between atoms: _114  and  _115
REMARK   47  A    between atoms: _120  and  _121
REMARK   48  A    between atoms: _124  and  _125
REMARK   49  A    between atoms: _130  and  _132
REMARK   50  A    between atoms: _132  and  _133
REMARK   51  A    between atoms: _132  and  _135
REMARK   52  A    between atoms: _135  and  _136
REMARK   53  A    between atoms: _141  and  _143
REMARK   54  A    between atoms: _143  and  _144
REMARK   55  A    between atoms: _143  and  _146
REMARK   56  A    between atoms: _146  and  _147
REMARK   57  A    between atoms: _150  and  _152
REMARK   58  A    between atoms: _152  and  _153
REMARK   59  A    between atoms: _152  and  _155
REMARK   60  A    between atoms: _155  and  _156
REMARK   61  A    between atoms: _161  and  _163
REMARK   62  A    between atoms: _163  and  _164
REMARK   63  A    between atoms: _163  and  _166
REMARK   64  A    between atoms: _166  and  _167
REMARK   65  A    between atoms: _173  and  _175
REMARK   66  A    between atoms: _175  and  _176
REMARK   67  A    between atoms: _175  and  _178
REMARK   68  A    between atoms: _178  and  _179
REMARK   69  A    between atoms: _185  and  _187
REMARK   70  A    between atoms: _187  and  _188
REMARK   71  A    between atoms: _187  and  _190
REMARK   72  A    between atoms: _190  and  _191
REMARK   73  A    between atoms: _191  and  _192
REMARK   74  A    between atoms: _195  and  _197
REMARK   75  A    between atoms: _197  and  _198
REMARK   76  A    between atoms: _197  and  _200
REMARK   77  A    between atoms: _200  and  _201
REMARK   78  A    between atoms: _201  and  _202
REMARK   79  A    between atoms: _202  and  _203
REMARK   80  A    between atoms: _212  and  _214
REMARK   81  A    between atoms: _214  and  _215
REMARK   82  A    between atoms: _214  and  _217
REMARK   83  A    between atoms: _217  and  _218
REMARK   84  A    between atoms: _223  and  _225
REMARK   85  A    between atoms: _225  and  _226
REMARK   86  A    between atoms: _225  and  _228
REMARK   87  A    between atoms: _228  and  _229
REMARK   88  A    between atoms: _232  and  _234
REMARK   89  A    between atoms: _234  and  _235
REMARK   90  A    between atoms: _234  and  _237
REMARK   91  A    between atoms: _237  and  _238
REMARK   92  A    between atoms: _241  and  _243
REMARK   93  A    between atoms: _243  and  _244
REMARK   94  A    between atoms: _243  and  _246
REMARK   95  A    between atoms: _246  and  _247
REMARK   96  A    between atoms: _252  and  _254
REMARK   97  A    between atoms: _254  and  _255
REMARK   98  A    between atoms: _254  and  _257
REMARK   99  A    between atoms: _257  and  _258
REMARK  100  A    between atoms: _261  and  _263
REMARK  101  A    between atoms: _263  and  _264
REMARK  102  A    between atoms: _263  and  _266
REMARK  103  A    between atoms: _266  and  _267
REMARK  104  A    between atoms: _272  and  _274
REMARK  105  A    between atoms: _274  and  _275
REMARK  106  A    between atoms: _274  and  _277
REMARK  107  A    between atoms: _277  and  _278
REMARK  108  A    between atoms: _283  and  _285
REMARK  109  A    between atoms: _285  and  _286
REMARK  110  A    between atoms: _285  and  _288
REMARK  111  A    between atoms: _288  and  _289
REMARK  112  A    between atoms: _292  and  _294
REMARK  113  A    between atoms: _294  and  _295
REMARK  114  A    between atoms: _294  and  _297
REMARK  115  A    between atoms: _300  and  _302
REMARK  116  A    between atoms: _302  and  _303
REMARK  117  A    between atoms: _302  and  _305
REMARK  118  A    between atoms: _305  and  _306
REMARK  119  A    between atoms: _309  and  _311
REMARK  120  A    between atoms: _311  and  _312
REMARK  121  A    between atoms: _311  and  _314
REMARK  122  A    between atoms: _314  and  _315
REMARK  123  A    between atoms: _315  and  _316
REMARK  124  A    between atoms: _319  and  _321
REMARK  125  A    between atoms: _321  and  _322
REMARK  126  A    between atoms: _325  and  _327
REMARK  127  A    between atoms: _327  and  _328
REMARK  128  A    between atoms: _327  and  _330
REMARK  129  A    between atoms: _330  and  _331
REMARK  130  A    between atoms: _334  and  _336
REMARK  131  A    between atoms: _336  and  _337
REMARK  132  A    between atoms: _336  and  _339
REMARK  133  A    between atoms: _339  and  _340
REMARK  134  A    between atoms: _340  and  _341
REMARK  135  A    between atoms: _344  and  _346
REMARK  136  A    between atoms: _346  and  _347
REMARK  137  A    between atoms: _346  and  _349
REMARK  138  A    between atoms: _349  and  _350
REMARK  139  A    between atoms: _355  and  _357
REMARK  140  A    between atoms: _357  and  _358
REMARK  141  A    between atoms: _360  and  _362
REMARK  142  A    between atoms: _362  and  _363
REMARK  143  A    between atoms: _362  and  _365
REMARK  144  A    between atoms: _368  and  _370
REMARK  145  A    between atoms: _370  and  _371
REMARK  146  A    between atoms: _374  and  _376
REMARK  147  A    between atoms: _376  and  _377
REMARK  148  A    between atoms: _376  and  _379
REMARK  149  A    between atoms: _379  and  _380
REMARK  150  A    between atoms: _385  and  _387
REMARK  151  A    between atoms: _387  and  _388
REMARK  152  A    between atoms: _387  and  _390
REMARK  153  A    between atoms: _390  and  _391
REMARK  154  A    between atoms: _391  and  _392
REMARK  155  A    between atoms: _392  and  _393
REMARK  156  A    between atoms: _393  and  _394
REMARK  157  A    between atoms: _398  and  _400
REMARK  158  A    between atoms: _400  and  _401
REMARK  159  A    between atoms: _400  and  _403
REMARK  160  A    between atoms: _403  and  _404
REMARK  161  A    between atoms: _407  and  _409
REMARK  162  A    between atoms: _409  and  _410
REMARK  163  A    between atoms: _409  and  _412
REMARK  164  A    between atoms: _412  and  _413
REMARK  165  A    between atoms: _418  and  _420
REMARK  166  A    between atoms: _420  and  _421
REMARK  167  A    between atoms: _423  and  _425
REMARK  168  A    between atoms: _425  and  _426
REMARK  169  A    between atoms: _425  and  _428
REMARK  170  A    between atoms: _428  and  _429
REMARK  171  A    between atoms: _429  and  _430
REMARK  172  A    between atoms: _430  and  _431
REMARK  173  A    between atoms: _431  and  _432
REMARK  174  A    between atoms: _436  and  _438
REMARK  175  A    between atoms: _438  and  _439
REMARK  176  A    between atoms: _438  and  _441
REMARK  177  A    between atoms: _441  and  _442
REMARK  178  A    between atoms: _442  and  _443
REMARK  179  A    between atoms: _443  and  _444
REMARK  180  A    between atoms: _453  and  _455
REMARK  181  A    between atoms: _455  and  _456
REMARK  182  A    between atoms: _455  and  _458
REMARK  183  A    between atoms: _458  and  _459
REMARK  184  A    between atoms: _464  and  _465
REMARK  185  A    between atoms: _467  and  _469
REMARK  186  A    between atoms: _469  and  _470
REMARK  187  A    between atoms: _469  and  _472
REMARK  188  A    between atoms: _472  and  _473
REMARK  189  A    between atoms: _473  and  _474
REMARK  190  A    between atoms: _474  and  _475
REMARK  191  A    between atoms: _475  and  _476
REMARK  192  A    between atoms: _480  and  _482
REMARK  193  A    between atoms: _482  and  _483
REMARK  194  A    between atoms: _482  and  _485
REMARK  195  A    between atoms: _485  and  _486
REMARK  196  A    between atoms: _488  and  _490
REMARK  197  A    between atoms: _490  and  _491
REMARK  198  A    between atoms: _490  and  _493
REMARK  199  A    between atoms: _493  and  _494
REMARK  200  A    between atoms: _497  and  _499
REMARK  201  A    between atoms: _499  and  _500
REMARK  202  A    between atoms: _499  and  _502
REMARK  203  A    between atoms: _502  and  _503
REMARK  204  A    between atoms: _503  and  _504
REMARK  205  A    between atoms: _507  and  _509
REMARK  206  A    between atoms: _509  and  _510
REMARK  207  A    between atoms: _513  and  _515
REMARK  208  A    between atoms: _515  and  _516
REMARK  209  A    between atoms: _515  and  _518
REMARK  210  A    between atoms: _518  and  _519
REMARK  211  A    between atoms: _521  and  _523
REMARK  212  A    between atoms: _523  and  _524
REMARK  213  A    between atoms: _526  and  _528
REMARK  214  A    between atoms: _528  and  _529
REMARK  215  A    between atoms: _528  and  _531
REMARK  216  A    between atoms: _531  and  _532
REMARK  217  A    between atoms: _535  and  _537
REMARK  218  A    between atoms: _537  and  _538
REMARK  219  A    between atoms: _540  and  _542
REMARK  220  A    between atoms: _542  and  _543
REMARK  221  A    between atoms: _542  and  _545
REMARK  222  A    between atoms: _545  and  _546
REMARK  223  A    between atoms: _551  and  _553
REMARK  224  A    between atoms: _553  and  _554
REMARK  225  A    between atoms: _553  and  _556
REMARK  226  A    between atoms: _556  and  _557
REMARK  227  A    between atoms: _557  and  _558
REMARK  228  A    between atoms: _565  and  _566
REMARK  229  A    between atoms: _566  and  _582
REMARK  230  A    between atoms: _567  and  _569
REMARK  231  A    between atoms: _569  and  _570
REMARK  232  A    between atoms: _570  and  _571
REMARK  233  A    between atoms: _575  and  _577
REMARK  234  A    between atoms: _577  and  _578
REMARK  235  A    between atoms: _577  and  _585
REMARK  236  A    between atoms: _578  and  _579
REMARK  237  A    between atoms: _579  and  _580
REMARK  238  A    between atoms: _580  and  _581
REMARK  239  A    between atoms: _581  and  _582
REMARK  240  A    between atoms: _587  and  _589
REMARK  241  A    between atoms: _589  and  _590
REMARK  242  A    between atoms: _589  and  _592
REMARK  243  A    between atoms: _592  and  _593
REMARK  244  A    between atoms: _596  and  _598
REMARK  245  A    between atoms: _598  and  _599
REMARK  246  A    between atoms: _601  and  _603
REMARK  247  A    between atoms: _603  and  _604
REMARK  248  A    between atoms: _607  and  _609
REMARK  249  A    between atoms: _609  and  _610
REMARK  250  A    between atoms: _609  and  _612
REMARK  251  A    between atoms: _612  and  _613
REMARK  252  A    between atoms: _618  and  _619
REMARK                            x       y       z     vdW  Elec       q    Type
REMARK                         _______ _______ _______ _____ _____    ______ ____
ROOT
ATOM      1  C   ALA A   2      42.653  27.150  30.751  0.00  0.00    +0.241 C 
ATOM      2  O   ALA A   2      42.218  26.451  31.671  0.00  0.00    -0.273 OA
ATOM      3  N   LEU A   3      43.886  27.021  30.269  0.00  0.00    -0.297 N 
ATOM      4  H   LEU A   3      44.221  27.690  29.546  0.00  0.00    +0.150 HD
ENDROOT
BRANCH   1   5
ATOM      5  CA  ALA A   2      41.775  28.221  30.102  0.00  0.00    +0.149 C 
ATOM      6  CB  ALA A   2      40.681  27.570  29.262  0.00  0.00    +0.031 C 
BRANCH   5   9
ATOM      7  C   GLU A   1      42.985  30.323  29.755  0.00  0.00    +0.238 C 
ATOM      8  O   GLU A   1      42.760  30.707  30.905  0.00  0.00    -0.274 OA
ATOM      9  N   ALA A   2      42.553  29.154  29.284  0.00  0.00    -0.297 N 
ATOM     10  H   ALA A   2      42.776  28.895  28.302  0.00  0.00    +0.150 HD
BRANCH   7  11
ATOM     11  CA  GLU A   1      43.801  31.197  28.788  0.00  0.00    +0.145 C 
BRANCH  11  12
ATOM     12  N   GLU A   1      44.106  30.545  27.513  0.00  0.00    -0.238 NA
ATOM     13  H   GLU A   1      43.566  30.816  26.666  0.00  0.00    +0.142 HD
ENDBRANCH  11  12
BRANCH  11  14
ATOM     14  CB  GLU A   1      43.100  32.543  28.553  0.00  0.00    +0.038 C 
BRANCH  14  15
ATOM     15  CG  GLU A   1      41.695  32.450  27.958  0.00  0.00    +0.116 C 
BRANCH  15  16
ATOM     16  CD  GLU A   1      41.662  32.546  26.436  0.00  0.00    +0.365 C 
ATOM     17  OE2 GLU A   1      40.648  33.045  25.909  0.00  0.00    -0.246 OA
ATOM     18  OE1 GLU A   1      42.627  32.121  25.763  0.00  0.00    -0.246 OA
ENDBRANCH  15  16
ENDBRANCH  14  15
ENDBRANCH  11  14
ENDBRANCH   7  11
ENDBRANCH   5   9
ENDBRANCH   1   5
BRANCH   3  19
ATOM     19  CA  LEU A   3      44.781  25.964  30.729  0.00  0.00    +0.149 C 
BRANCH  19  20
ATOM     20  C   LEU A   3      45.408  26.309  32.079  0.00  0.00    +0.241 C 
ATOM     21  N   GLU A   4      45.405  25.342  32.992  0.00  0.00    -0.298 N 
ATOM     22  H   GLU A   4      45.018  24.410  32.741  0.00  0.00    +0.150 HD
ATOM     23  O   LEU A   3      45.878  27.430  32.291  0.00  0.00    -0.273 OA
BRANCH  21  24
ATOM     24  CA  GLU A   4      45.929  25.555  34.334  0.00  0.00    +0.137 C 
BRANCH  24  25
ATOM     25  C   GLU A   4      47.445  25.481  34.360  0.00  0.00    +0.227 C 
ATOM     26  O   GLU A   4      48.031  24.448  34.032  0.00  0.00    -0.286 OA
ENDBRANCH  24  25
BRANCH  24  27
ATOM     27  CB  GLU A   4      45.361  24.531  35.311  0.00  0.00    +0.039 C 
BRANCH  27  28
ATOM     28  CG  GLU A   4      43.865  24.627  35.509  0.00  0.00    +0.116 C 
BRANCH  28  29
ATOM     29  CD  GLU A   4      43.423  23.869  36.733  0.00  0.00    +0.365 C 
ATOM     30  OE2 GLU A   4      43.000  24.522  37.704  0.00  0.00    -0.246 OA
ATOM     31  OE1 GLU A   4      43.518  22.623  36.729  0.00  0.00    -0.246 OA
ENDBRANCH  28  29
ENDBRANCH  27  28
ENDBRANCH  24  27
ENDBRANCH  21  24
ENDBRANCH  19  20
BRANCH  19  32
ATOM     32  CB  LEU A   3      45.857  25.672  29.676  0.00  0.00    +0.029 C 
BRANCH  32  33
ATOM     33  CG  LEU A   3      45.385  25.301  28.263  0.00  0.00    +0.002 C 
ATOM     34  CD2 LEU A   3      44.504  24.046  28.234  0.00  0.00    +0.000 C 
ATOM     35  CD1 LEU A   3      46.583  25.128  27.339  0.00  0.00    +0.000 C 
ENDBRANCH  32  33
ENDBRANCH  19  32
ENDBRANCH   3  19
TORSDOF 16
REMARK  Name = ../refined-set-2016/2qrh/2qrh_pocket.pdb
REMARK  252 active torsions:
REMARK  status: ('A' for Active; 'I' for Inactive)
REMARK    1  A    between atoms: _1  and  _3
REMARK    2  A    between atoms: _3  and  _4
REMARK    3  A    between atoms: _3  and  _6
REMARK    4  A    between atoms: _6  and  _7
REMARK    5  A    between atoms: _12  and  _13
REMARK    6  A    between atoms: _15  and  _17
REMARK    7  A    between atoms: _17  and  _18
REMARK    8  A    between atoms: _17  and  _20
REMARK    9  A    between atoms: _20  and  _21
REMARK   10  A    between atoms: _21  and  _22
REMARK   11  A    between atoms: _25  and  _27
REMARK   12  A    between atoms: _27  and  _28
REMARK   13  A    between atoms: _30  and  _32
REMARK   14  A    between atoms: _32  and  _33
REMARK   15  A    between atoms: _32  and  _35
REMARK   16  A    between atoms: _35  and  _36
REMARK   17  A    between atoms: _41  and  _43
REMARK   18  A    between atoms: _43  and  _44
REMARK   19  A    between atoms: _46  and  _48
REMARK   20  A    between atoms: _48  and  _49
REMARK   21  A    between atoms: _51  and  _53
REMARK   22  A    between atoms: _53  and  _54
REMARK   23  A    between atoms: _53  and  _56
REMARK   24  A    between atoms: _56  and  _57
REMARK   25  A    between atoms: _60  and  _62
REMARK   26  A    between atoms: _62  and  _63
REMARK   27  A    between atoms: _65  and  _67
REMARK   28  A    between atoms: _67  and  _68
REMARK   29  A    between atoms: _67  and  _70
REMARK   30  A    between atoms: _70  and  _71
REMARK   31  A    between atoms: _71  and  _72
REMARK   32  A    between atoms: _72  and  _73
REMARK   33  A    between atoms: _82  and  _84
REMARK   34  A    between atoms: _84  and  _85
REMARK   35  A    between atoms: _84  and  _87
REMARK   36  A    between atoms: _87  and  _88
REMARK   37  A    between atoms: _91  and  _93
REMARK   38  A    between atoms: _93  and  _94
REMARK   39  A    between atoms: _97  and  _99
REMARK   40  A    between atoms: _99  and  _100
REMARK   41  A    between atoms: _99  and  _102
REMARK   42  A    between atoms: _102  and  _103
REMARK   43  A    between atoms: _109  and  _111
REMARK   44  A    between atoms: _111  and  _112
REMARK   45  A    between atoms: _111  and  _114
REMARK   46  A    between atoms: _114  and  _115
REMARK   47  A    between atoms: _120  and  _121
REMARK   48  A    between atoms: _124  and  _125
REMARK   49  A    between atoms: _130  and  _132
REMARK   50  A    between atoms: _132  and  _133
REMARK   51  A    between atoms: _132  and  _135
REMARK   52  A    between atoms: _135  and  _136
REMARK   53  A    between atoms: _141  and  _143
REMARK   54  A    between atoms: _143  and  _144
REMARK   55  A    between atoms: _143  and  _146
REMARK   56  A    between atoms: _146  and  _147
REMARK   57  A    between atoms: _150  and  _152
REMARK   58  A    between atoms: _152  and  _153
REMARK   59  A    between atoms: _152  and  _155
REMARK   60  A    between atoms: _155  and  _156
REMARK   61  A    between atoms: _161  and  _163
REMARK   62  A    between atoms: _163  and  _164
REMARK   63  A    between atoms: _163  and  _166
REMARK   64  A    between atoms: _166  and  _167
REMARK   65  A    between atoms: _173  and  _175
REMARK   66  A    between atoms: _175  and  _176
REMARK   67  A    between atoms: _175  and  _178
REMARK   68  A    between atoms: _178  and  _179
REMARK   69  A    between atoms: _185  and  _187
REMARK   70  A    between atoms: _187  and  _188
REMARK   71  A    between atoms: _187  and  _190
REMARK   72  A    between atoms: _190  and  _191
REMARK   73  A    between atoms: _191  and  _192
REMARK   74  A    between atoms: _195  and  _197
REMARK   75  A    between atoms: _197  and  _198
REMARK   76  A    between atoms: _197  and  _200
REMARK   77  A    between atoms: _200  and  _201
REMARK   78  A    between atoms: _201  and  _202
REMARK   79  A    between atoms: _202  and  _203
REMARK   80  A    between atoms: _212  and  _214
REMARK   81  A    between atoms: _214  and  _215
REMARK   82  A    between atoms: _214  and  _217
REMARK   83  A    between atoms: _217  and  _218
REMARK   84  A    between atoms: _223  and  _225
REMARK   85  A    between atoms: _225  and  _226
REMARK   86  A    between atoms: _225  and  _228
REMARK   87  A    between atoms: _228  and  _229
REMARK   88  A    between atoms: _232  and  _234
REMARK   89  A    between atoms: _234  and  _235
REMARK   90  A    between atoms: _234  and  _237
REMARK   91  A    between atoms: _237  and  _238
REMARK   92  A    between atoms: _241  and  _243
REMARK   93  A    between atoms: _243  and  _244
REMARK   94  A    between atoms: _243  and  _246
REMARK   95  A    between atoms: _246  and  _247
REMARK   96  A    between atoms: _252  and  _254
REMARK   97  A    between atoms: _254  and  _255
REMARK   98  A    between atoms: _254  and  _257
REMARK   99  A    between atoms: _257  and  _258
REMARK  100  A    between atoms: _261  and  _263
REMARK  101  A    between atoms: _263  and  _264
REMARK  102  A    between atoms: _263  and  _266
REMARK  103  A    between atoms: _266  and  _267
REMARK  104  A    between atoms: _272  and  _274
REMARK  105  A    between atoms: _274  and  _275
REMARK  106  A    between atoms: _274  and  _277
REMARK  107  A    between atoms: _277  and  _278
REMARK  108  A    between atoms: _283  and  _285
REMARK  109  A    between atoms: _285  and  _286
REMARK  110  A    between atoms: _285  and  _288
REMARK  111  A    between atoms: _288  and  _289
REMARK  112  A    between atoms: _292  and  _294
REMARK  113  A    between atoms: _294  and  _295
REMARK  114  A    between atoms: _294  and  _297
REMARK  115  A    between atoms: _300  and  _302
REMARK  116  A    between atoms: _302  and  _303
REMARK  117  A    between atoms: _302  and  _305
REMARK  118  A    between atoms: _305  and  _306
REMARK  119  A    between atoms: _309  and  _311
REMARK  120  A    between atoms: _311  and  _312
REMARK  121  A    between atoms: _311  and  _314
REMARK  122  A    between atoms: _314  and  _315
REMARK  123  A    between atoms: _315  and  _316
REMARK  124  A    between atoms: _319  and  _321
REMARK  125  A    between atoms: _321  and  _322
REMARK  126  A    between atoms: _325  and  _327
REMARK  127  A    between atoms: _327  and  _328
REMARK  128  A    between atoms: _327  and  _330
REMARK  129  A    between atoms: _330  and  _331
REMARK  130  A    between atoms: _334  and  _336
REMARK  131  A    between atoms: _336  and  _337
REMARK  132  A    between atoms: _336  and  _339
REMARK  133  A    between atoms: _339  and  _340
REMARK  134  A    between atoms: _340  and  _341
REMARK  135  A    between atoms: _344  and  _346
REMARK  136  A    between atoms: _346  and  _347
REMARK  137  A    between atoms: _346  and  _349
REMARK  138  A    between atoms: _349  and  _350
REMARK  139  A    between atoms: _355  and  _357
REMARK  140  A    between atoms: _357  and  _358
REMARK  141  A    between atoms: _360  and  _362
REMARK  142  A    between atoms: _362  and  _363
REMARK  143  A    between atoms: _362  and  _365
REMARK  144  A    between atoms: _368  and  _370
REMARK  145  A    between atoms: _370  and  _371
REMARK  146  A    between atoms: _374  and  _376
REMARK  147  A    between atoms: _376  and  _377
REMARK  148  A    between atoms: _376  and  _379
REMARK  149  A    between atoms: _379  and  _380
REMARK  150  A    between atoms: _385  and  _387
REMARK  151  A    between atoms: _387  and  _388
REMARK  152  A    between atoms: _387  and  _390
REMARK  153  A    between atoms: _390  and  _391
REMARK  154  A    between atoms: _391  and  _392
REMARK  155  A    between atoms: _392  and  _393
REMARK  156  A    between atoms: _393  and  _394
REMARK  157  A    between atoms: _398  and  _400
REMARK  158  A    between atoms: _400  and  _401
REMARK  159  A    between atoms: _400  and  _403
REMARK  160  A    between atoms: _403  and  _404
REMARK  161  A    between atoms: _407  and  _409
REMARK  162  A    between atoms: _409  and  _410
REMARK  163  A    between atoms: _409  and  _412
REMARK  164  A    between atoms: _412  and  _413
REMARK  165  A    between atoms: _418  and  _420
REMARK  166  A    between atoms: _420  and  _421
REMARK  167  A    between atoms: _423  and  _425
REMARK  168  A    between atoms: _425  and  _426
REMARK  169  A    between atoms: _425  and  _428
REMARK  170  A    between atoms: _428  and  _429
REMARK  171  A    between atoms: _429  and  _430
REMARK  172  A    between atoms: _430  and  _431
REMARK  173  A    between atoms: _431  and  _432
REMARK  174  A    between atoms: _436  and  _438
REMARK  175  A    between atoms: _438  and  _439
REMARK  176  A    between atoms: _438  and  _441
REMARK  177  A    between atoms: _441  and  _442
REMARK  178  A    between atoms: _442  and  _443
REMARK  179  A    between atoms: _443  and  _444
REMARK  180  A    between atoms: _453  and  _455
REMARK  181  A    between atoms: _455  and  _456
REMARK  182  A    between atoms: _455  and  _458
REMARK  183  A    between atoms: _458  and  _459
REMARK  184  A    between atoms: _464  and  _465
REMARK  185  A    between atoms: _467  and  _469
REMARK  186  A    between atoms: _469  and  _470
REMARK  187  A    between atoms: _469  and  _472
REMARK  188  A    between atoms: _472  and  _473
REMARK  189  A    between atoms: _473  and  _474
REMARK  190  A    between atoms: _474  and  _475
REMARK  191  A    between atoms: _475  and  _476
REMARK  192  A    between atoms: _480  and  _482
REMARK  193  A    between atoms: _482  and  _483
REMARK  194  A    between atoms: _482  and  _485
REMARK  195  A    between atoms: _485  and  _486
REMARK  196  A    between atoms: _488  and  _490
REMARK  197  A    between atoms: _490  and  _491
REMARK  198  A    between atoms: _490  and  _493
REMARK  199  A    between atoms: _493  and  _494
REMARK  200  A    between atoms: _497  and  _499
REMARK  201  A    between atoms: _499  and  _500
REMARK  202  A    between atoms: _499  and  _502
REMARK  203  A    between atoms: _502  and  _503
REMARK  204  A    between atoms: _503  and  _504
REMARK  205  A    between atoms: _507  and  _509
REMARK  206  A    between atoms: _509  and  _510
REMARK  207  A    between atoms: _513  and  _515
REMARK  208  A    between atoms: _515  and  _516
REMARK  209  A    between atoms: _515  and  _518
REMARK  210  A    between atoms: _518  and  _519
REMARK  211  A    between atoms: _521  and  _523
REMARK  212  A    between atoms: _523  and  _524
REMARK  213  A    between atoms: _526  and  _528
REMARK  214  A    between atoms: _528  and  _529
REMARK  215  A    between atoms: _528  and  _531
REMARK  216  A    between atoms: _531  and  _532
REMARK  217  A    between atoms: _535  and  _537
REMARK  218  A    between atoms: _537  and  _538
REMARK  219  A    between atoms: _540  and  _542
REMARK  220  A    between atoms: _542  and  _543
REMARK  221  A    between atoms: _542  and  _545
REMARK  222  A    between atoms: _545  and  _546
REMARK  223  A    between atoms: _551  and  _553
REMARK  224  A    between atoms: _553  and  _554
REMARK  225  A    between atoms: _553  and  _556
REMARK  226  A    between atoms: _556  and  _557
REMARK  227  A    between atoms: _557  and  _558
REMARK  228  A    between atoms: _565  and  _566
REMARK  229  A    between atoms: _566  and  _582
REMARK  230  A    between atoms: _567  and  _569
REMARK  231  A    between atoms: _569  and  _570
REMARK  232  A    between atoms: _570  and  _571
REMARK  233  A    between atoms: _575  and  _577
REMARK  234  A    between atoms: _577  and  _578
REMARK  235  A    between atoms: _577  and  _585
REMARK  236  A    between atoms: _578  and  _579
REMARK  237  A    between atoms: _579  and  _580
REMARK  238  A    between atoms: _580  and  _581
REMARK  239  A    between atoms: _581  and  _582
REMARK  240  A    between atoms: _587  and  _589
REMARK  241  A    between atoms: _589  and  _590
REMARK  242  A    between atoms: _589  and  _592
REMARK  243  A    between atoms: _592  and  _593
REMARK  244  A    between atoms: _596  and  _598
REMARK  245  A    between atoms: _598  and  _599
REMARK  246  A    between atoms: _601  and  _603
REMARK  247  A    between atoms: _603  and  _604
REMARK  248  A    between atoms: _607  and  _609
REMARK  249  A    between atoms: _609  and  _610
REMARK  250  A    between atoms: _609  and  _612
REMARK  251  A    between atoms: _612  and  _613
REMARK  252  A    between atoms: _618  and  _619
REMARK                            x       y       z     vdW  Elec       q    Type
REMARK                         _______ _______ _______ _____ _____    ______ ____
ROOT
ATOM      1  C   GLY A   2      37.890  14.511  23.541  0.00  0.00    +0.243 C 
ATOM      2  O   GLY A   2      37.526  13.339  23.670  0.00  0.00    -0.273 OA
ATOM      3  N   VAL A   3      37.047  15.508  23.315  0.00  0.00    -0.297 N 
ATOM      4  H   VAL A   3      37.420  16.414  22.966  0.00  0.00    +0.150 HD
ENDROOT
BRANCH   1   5
ATOM      5  CA  GLY A   2      39.363  14.874  23.603  0.00  0.00    +0.176 C 
BRANCH   5   8
ATOM      6  C   ASN A   1      40.495  13.339  25.130  0.00  0.00    +0.239 C 
ATOM      7  O   ASN A   1      40.474  14.117  26.083  0.00  0.00    -0.274 OA
ATOM      8  N   GLY A   2      40.126  13.671  23.895  0.00  0.00    -0.296 N 
ATOM      9  H   GLY A   2      40.394  13.046  23.108  0.00  0.00    +0.150 HD
BRANCH   6  10
ATOM     10  CA  ASN A   1      40.981  11.910  25.298  0.00  0.00    +0.154 C 
BRANCH  10  11
ATOM     11  N   ASN A   1      41.979  11.724  26.344  0.00  0.00    -0.238 NA
ATOM     12  H   ASN A   1      41.800  12.078  27.305  0.00  0.00    +0.142 HD
ENDBRANCH  10  11
BRANCH  10  13
ATOM     13  CB  ASN A   1      39.795  10.939  25.471  0.00  0.00    +0.111 C 
BRANCH  13  14
ATOM     14  CG  ASN A   1      38.850  11.346  26.597  0.00  0.00    +0.221 C 
ATOM     15  OD1 ASN A   1      39.135  11.129  27.770  0.00  0.00    -0.275 OA
ATOM     16  ND2 ASN A   1      37.708  11.914  26.233  0.00  0.00    -0.329 N 
ATOM     17 HD21 ASN A   1      37.013  12.194  26.955  0.00  0.00    +0.145 HD
ATOM     18 HD22 ASN A   1      37.507  12.079  25.226  0.00  0.00    +0.145 HD
ENDBRANCH  13  14
ENDBRANCH  10  13
ENDBRANCH   6  10
ENDBRANCH   5   8
ENDBRANCH   1   5
BRANCH   3  19
ATOM     19  CA  VAL A   3      35.606  15.374  23.541  0.00  0.00    +0.149 C 
BRANCH  19  20
ATOM     20  C   VAL A   3      34.768  15.484  22.260  0.00  0.00    +0.241 C 
ATOM     21  O   VAL A   3      33.536  15.514  22.312  0.00  0.00    -0.273 OA
ATOM     22  N   ALA A   4      35.455  15.551  21.120  0.00  0.00    -0.298 N 
ATOM     23  H   ALA A   4      36.487  15.666  21.173  0.00  0.00    +0.150 HD
BRANCH  22  24
ATOM     24  CA  ALA A   4      34.832  15.471  19.795  0.00  0.00    +0.137 C 
ATOM     25  CB  ALA A   4      34.122  16.778  19.433  0.00  0.00    +0.030 C 
BRANCH  24  26
ATOM     26  C   ALA A   4      35.928  15.161  18.790  0.00  0.00    +0.227 C 
ATOM     27  O   ALA A   4      37.101  15.459  19.037  0.00  0.00    -0.286 OA
ENDBRANCH  24  26
ENDBRANCH  22  24
ENDBRANCH  19  20
BRANCH  19  28
ATOM     28  CB  VAL A   3      35.111  16.364  24.638  0.00  0.00    +0.027 C 
ATOM     29  CG2 VAL A   3      35.708  15.987  25.996  0.00  0.00    +0.002 C 
ATOM     30  CG1 VAL A   3      35.454  17.819  24.285  0.00  0.00    +0.002 C 
ENDBRANCH  19  28
ENDBRANCH   3  19
TORSDOF 11
REMARK  Name = ../refined-set-2016/2qrh/2qrh_pocket.pdb
REMARK  252 active torsions:
REMARK  status: ('A' for Active; 'I' for Inactive)
REMARK    1  A    between atoms: _1  and  _3
REMARK    2  A    between atoms: _3  and  _4
REMARK    3  A    between atoms: _3  and  _6
REMARK    4  A    between atoms: _6  and  _7
REMARK    5  A    between atoms: _12  and  _13
REMARK    6  A    between atoms: _15  and  _17
REMARK    7  A    between atoms: _17  and  _18
REMARK    8  A    between atoms: _17  and  _20
REMARK    9  A    between atoms: _20  and  _21
REMARK   10  A    between atoms: _21  and  _22
REMARK   11  A    between atoms: _25  and  _27
REMARK   12  A    between atoms: _27  and  _28
REMARK   13  A    between atoms: _30  and  _32
REMARK   14  A    between atoms: _32  and  _33
REMARK   15  A    between atoms: _32  and  _35
REMARK   16  A    between atoms: _35  and  _36
REMARK   17  A    between atoms: _41  and  _43
REMARK   18  A    between atoms: _43  and  _44
REMARK   19  A    between atoms: _46  and  _48
REMARK   20  A    between atoms: _48  and  _49
REMARK   21  A    between atoms: _51  and  _53
REMARK   22  A    between atoms: _53  and  _54
REMARK   23  A    between atoms: _53  and  _56
REMARK   24  A    between atoms: _56  and  _57
REMARK   25  A    between atoms: _60  and  _62
REMARK   26  A    between atoms: _62  and  _63
REMARK   27  A    between atoms: _65  and  _67
REMARK   28  A    between atoms: _67  and  _68
REMARK   29  A    between atoms: _67  and  _70
REMARK   30  A    between atoms: _70  and  _71
REMARK   31  A    between atoms: _71  and  _72
REMARK   32  A    between atoms: _72  and  _73
REMARK   33  A    between atoms: _82  and  _84
REMARK   34  A    between atoms: _84  and  _85
REMARK   35  A    between atoms: _84  and  _87
REMARK   36  A    between atoms: _87  and  _88
REMARK   37  A    between atoms: _91  and  _93
REMARK   38  A    between atoms: _93  and  _94
REMARK   39  A    between atoms: _97  and  _99
REMARK   40  A    between atoms: _99  and  _100
REMARK   41  A    between atoms: _99  and  _102
REMARK   42  A    between atoms: _102  and  _103
REMARK   43  A    between atoms: _109  and  _111
REMARK   44  A    between atoms: _111  and  _112
REMARK   45  A    between atoms: _111  and  _114
REMARK   46  A    between atoms: _114  and  _115
REMARK   47  A    between atoms: _120  and  _121
REMARK   48  A    between atoms: _124  and  _125
REMARK   49  A    between atoms: _130  and  _132
REMARK   50  A    between atoms: _132  and  _133
REMARK   51  A    between atoms: _132  and  _135
REMARK   52  A    between atoms: _135  and  _136
REMARK   53  A    between atoms: _141  and  _143
REMARK   54  A    between atoms: _143  and  _144
REMARK   55  A    between atoms: _143  and  _146
REMARK   56  A    between atoms: _146  and  _147
REMARK   57  A    between atoms: _150  and  _152
REMARK   58  A    between atoms: _152  and  _153
REMARK   59  A    between atoms: _152  and  _155
REMARK   60  A    between atoms: _155  and  _156
REMARK   61  A    between atoms: _161  and  _163
REMARK   62  A    between atoms: _163  and  _164
REMARK   63  A    between atoms: _163  and  _166
REMARK   64  A    between atoms: _166  and  _167
REMARK   65  A    between atoms: _173  and  _175
REMARK   66  A    between atoms: _175  and  _176
REMARK   67  A    between atoms: _175  and  _178
REMARK   68  A    between atoms: _178  and  _179
REMARK   69  A    between atoms: _185  and  _187
REMARK   70  A    between atoms: _187  and  _188
REMARK   71  A    between atoms: _187  and  _190
REMARK   72  A    between atoms: _190  and  _191
REMARK   73  A    between atoms: _191  and  _192
REMARK   74  A    between atoms: _195  and  _197
REMARK   75  A    between atoms: _197  and  _198
REMARK   76  A    between atoms: _197  and  _200
REMARK   77  A    between atoms: _200  and  _201
REMARK   78  A    between atoms: _201  and  _202
REMARK   79  A    between atoms: _202  and  _203
REMARK   80  A    between atoms: _212  and  _214
REMARK   81  A    between atoms: _214  and  _215
REMARK   82  A    between atoms: _214  and  _217
REMARK   83  A    between atoms: _217  and  _218
REMARK   84  A    between atoms: _223  and  _225
REMARK   85  A    between atoms: _225  and  _226
REMARK   86  A    between atoms: _225  and  _228
REMARK   87  A    between atoms: _228  and  _229
REMARK   88  A    between atoms: _232  and  _234
REMARK   89  A    between atoms: _234  and  _235
REMARK   90  A    between atoms: _234  and  _237
REMARK   91  A    between atoms: _237  and  _238
REMARK   92  A    between atoms: _241  and  _243
REMARK   93  A    between atoms: _243  and  _244
REMARK   94  A    between atoms: _243  and  _246
REMARK   95  A    between atoms: _246  and  _247
REMARK   96  A    between atoms: _252  and  _254
REMARK   97  A    between atoms: _254  and  _255
REMARK   98  A    between atoms: _254  and  _257
REMARK   99  A    between atoms: _257  and  _258
REMARK  100  A    between atoms: _261  and  _263
REMARK  101  A    between atoms: _263  and  _264
REMARK  102  A    between atoms: _263  and  _266
REMARK  103  A    between atoms: _266  and  _267
REMARK  104  A    between atoms: _272  and  _274
REMARK  105  A    between atoms: _274  and  _275
REMARK  106  A    between atoms: _274  and  _277
REMARK  107  A    between atoms: _277  and  _278
REMARK  108  A    between atoms: _283  and  _285
REMARK  109  A    between atoms: _285  and  _286
REMARK  110  A    between atoms: _285  and  _288
REMARK  111  A    between atoms: _288  and  _289
REMARK  112  A    between atoms: _292  and  _294
REMARK  113  A    between atoms: _294  and  _295
REMARK  114  A    between atoms: _294  and  _297
REMARK  115  A    between atoms: _300  and  _302
REMARK  116  A    between atoms: _302  and  _303
REMARK  117  A    between atoms: _302  and  _305
REMARK  118  A    between atoms: _305  and  _306
REMARK  119  A    between atoms: _309  and  _311
REMARK  120  A    between atoms: _311  and  _312
REMARK  121  A    between atoms: _311  and  _314
REMARK  122  A    between atoms: _314  and  _315
REMARK  123  A    between atoms: _315  and  _316
REMARK  124  A    between atoms: _319  and  _321
REMARK  125  A    between atoms: _321  and  _322
REMARK  126  A    between atoms: _325  and  _327
REMARK  127  A    between atoms: _327  and  _328
REMARK  128  A    between atoms: _327  and  _330
REMARK  129  A    between atoms: _330  and  _331
REMARK  130  A    between atoms: _334  and  _336
REMARK  131  A    between atoms: _336  and  _337
REMARK  132  A    between atoms: _336  and  _339
REMARK  133  A    between atoms: _339  and  _340
REMARK  134  A    between atoms: _340  and  _341
REMARK  135  A    between atoms: _344  and  _346
REMARK  136  A    between atoms: _346  and  _347
REMARK  137  A    between atoms: _346  and  _349
REMARK  138  A    between atoms: _349  and  _350
REMARK  139  A    between atoms: _355  and  _357
REMARK  140  A    between atoms: _357  and  _358
REMARK  141  A    between atoms: _360  and  _362
REMARK  142  A    between atoms: _362  and  _363
REMARK  143  A    between atoms: _362  and  _365
REMARK  144  A    between atoms: _368  and  _370
REMARK  145  A    between atoms: _370  and  _371
REMARK  146  A    between atoms: _374  and  _376
REMARK  147  A    between atoms: _376  and  _377
REMARK  148  A    between atoms: _376  and  _379
REMARK  149  A    between atoms: _379  and  _380
REMARK  150  A    between atoms: _385  and  _387
REMARK  151  A    between atoms: _387  and  _388
REMARK  152  A    between atoms: _387  and  _390
REMARK  153  A    between atoms: _390  and  _391
REMARK  154  A    between atoms: _391  and  _392
REMARK  155  A    between atoms: _392  and  _393
REMARK  156  A    between atoms: _393  and  _394
REMARK  157  A    between atoms: _398  and  _400
REMARK  158  A    between atoms: _400  and  _401
REMARK  159  A    between atoms: _400  and  _403
REMARK  160  A    between atoms: _403  and  _404
REMARK  161  A    between atoms: _407  and  _409
REMARK  162  A    between atoms: _409  and  _410
REMARK  163  A    between atoms: _409  and  _412
REMARK  164  A    between atoms: _412  and  _413
REMARK  165  A    between atoms: _418  and  _420
REMARK  166  A    between atoms: _420  and  _421
REMARK  167  A    between atoms: _423  and  _425
REMARK  168  A    between atoms: _425  and  _426
REMARK  169  A    between atoms: _425  and  _428
REMARK  170  A    between atoms: _428  and  _429
REMARK  171  A    between atoms: _429  and  _430
REMARK  172  A    between atoms: _430  and  _431
REMARK  173  A    between atoms: _431  and  _432
REMARK  174  A    between atoms: _436  and  _438
REMARK  175  A    between atoms: _438  and  _439
REMARK  176  A    between atoms: _438  and  _441
REMARK  177  A    between atoms: _441  and  _442
REMARK  178  A    between atoms: _442  and  _443
REMARK  179  A    between atoms: _443  and  _444
REMARK  180  A    between atoms: _453  and  _455
REMARK  181  A    between atoms: _455  and  _456
REMARK  182  A    between atoms: _455  and  _458
REMARK  183  A    between atoms: _458  and  _459
REMARK  184  A    between atoms: _464  and  _465
REMARK  185  A    between atoms: _467  and  _469
REMARK  186  A    between atoms: _469  and  _470
REMARK  187  A    between atoms: _469  and  _472
REMARK  188  A    between atoms: _472  and  _473
REMARK  189  A    between atoms: _473  and  _474
REMARK  190  A    between atoms: _474  and  _475
REMARK  191  A    between atoms: _475  and  _476
REMARK  192  A    between atoms: _480  and  _482
REMARK  193  A    between atoms: _482  and  _483
REMARK  194  A    between atoms: _482  and  _485
REMARK  195  A    between atoms: _485  and  _486
REMARK  196  A    between atoms: _488  and  _490
REMARK  197  A    between atoms: _490  and  _491
REMARK  198  A    between atoms: _490  and  _493
REMARK  199  A    between atoms: _493  and  _494
REMARK  200  A    between atoms: _497  and  _499
REMARK  201  A    between atoms: _499  and  _500
REMARK  202  A    between atoms: _499  and  _502
REMARK  203  A    between atoms: _502  and  _503
REMARK  204  A    between atoms: _503  and  _504
REMARK  205  A    between atoms: _507  and  _509
REMARK  206  A    between atoms: _509  and  _510
REMARK  207  A    between atoms: _513  and  _515
REMARK  208  A    between atoms: _515  and  _516
REMARK  209  A    between atoms: _515  and  _518
REMARK  210  A    between atoms: _518  and  _519
REMARK  211  A    between atoms: _521  and  _523
REMARK  212  A    between atoms: _523  and  _524
REMARK  213  A    between atoms: _526  and  _528
REMARK  214  A    between atoms: _528  and  _529
REMARK  215  A    between atoms: _528  and  _531
REMARK  216  A    between atoms: _531  and  _532
REMARK  217  A    between atoms: _535  and  _537
REMARK  218  A    between atoms: _537  and  _538
REMARK  219  A    between atoms: _540  and  _542
REMARK  220  A    between atoms: _542  and  _543
REMARK  221  A    between atoms: _542  and  _545
REMARK  222  A    between atoms: _545  and  _546
REMARK  223  A    between atoms: _551  and  _553
REMARK  224  A    between atoms: _553  and  _554
REMARK  225  A    between atoms: _553  and  _556
REMARK  226  A    between atoms: _556  and  _557
REMARK  227  A    between atoms: _557  and  _558
REMARK  228  A    between atoms: _565  and  _566
REMARK  229  A    between atoms: _566  and  _582
REMARK  230  A    between atoms: _567  and  _569
REMARK  231  A    between atoms: _569  and  _570
REMARK  232  A    between atoms: _570  and  _571
REMARK  233  A    between atoms: _575  and  _577
REMARK  234  A    between atoms: _577  and  _578
REMARK  235  A    between atoms: _577  and  _585
REMARK  236  A    between atoms: _578  and  _579
REMARK  237  A    between atoms: _579  and  _580
REMARK  238  A    between atoms: _580  and  _581
REMARK  239  A    between atoms: _581  and  _582
REMARK  240  A    between atoms: _587  and  _589
REMARK  241  A    between atoms: _589  and  _590
REMARK  242  A    between atoms: _589  and  _592
REMARK  243  A    between atoms: _592  and  _593
REMARK  244  A    between atoms: _596  and  _598
REMARK  245  A    between atoms: _598  and  _599
REMARK  246  A    between atoms: _601  and  _603
REMARK  247  A    between atoms: _603  and  _604
REMARK  248  A    between atoms: _607  and  _609
REMARK  249  A    between atoms: _609  and  _610
REMARK  250  A    between atoms: _609  and  _612
REMARK  251  A    between atoms: _612  and  _613
REMARK  252  A    between atoms: _618  and  _619
REMARK                            x       y       z     vdW  Elec       q    Type
REMARK                         _______ _______ _______ _____ _____    ______ ____
ROOT
ATOM      1  CB  HIS A   1      38.057  18.593  20.164  0.00  0.00    +0.072 C 
ENDROOT
BRANCH   1   2
ATOM      2  CG  HIS A   1      38.748  18.805  21.475  0.00  0.00    +0.082 A 
ATOM      3  CD2 HIS A   1      38.758  18.058  22.602  0.00  0.00    +0.115 A 
ATOM      4  NE2 HIS A   1      39.547  18.711  23.516  0.00  0.00    -0.221 NA
ATOM      5  CE1 HIS A   1      40.001  19.825  22.971  0.00  0.00    +0.199 A 
ATOM      6  ND1 HIS A   1      39.530  19.909  21.740  0.00  0.00    -0.227 NA
ENDBRANCH   1   2
BRANCH   1   7
ATOM      7  CA  HIS A   1      39.007  18.420  18.969  0.00  0.00    +0.139 C 
BRANCH   7   8
ATOM      8  N   HIS A   1      38.249  17.974  17.802  0.00  0.00    -0.239 NA
ATOM      9  H   HIS A   1      37.266  17.663  17.939  0.00  0.00    +0.142 HD
ENDBRANCH   7   8
BRANCH   7  10
ATOM     10  C   HIS A   1      40.151  17.453  19.280  0.00  0.00    +0.224 C 
ATOM     11  O   HIS A   1      41.295  17.872  19.475  0.00  0.00    -0.287 OA
ENDBRANCH   7  10
ENDBRANCH   1   7
TORSDOF 4
REMARK  Name = ../refined-set-2016/2qrh/2qrh_pocket.pdb
REMARK  252 active torsions:
REMARK  status: ('A' for Active; 'I' for Inactive)
REMARK    1  A    between atoms: _1  and  _3
REMARK    2  A    between atoms: _3  and  _4
REMARK    3  A    between atoms: _3  and  _6
REMARK    4  A    between atoms: _6  and  _7
REMARK    5  A    between atoms: _12  and  _13
REMARK    6  A    between atoms: _15  and  _17
REMARK    7  A    between atoms: _17  and  _18
REMARK    8  A    between atoms: _17  and  _20
REMARK    9  A    between atoms: _20  and  _21
REMARK   10  A    between atoms: _21  and  _22
REMARK   11  A    between atoms: _25  and  _27
REMARK   12  A    between atoms: _27  and  _28
REMARK   13  A    between atoms: _30  and  _32
REMARK   14  A    between atoms: _32  and  _33
REMARK   15  A    between atoms: _32  and  _35
REMARK   16  A    between atoms: _35  and  _36
REMARK   17  A    between atoms: _41  and  _43
REMARK   18  A    between atoms: _43  and  _44
REMARK   19  A    between atoms: _46  and  _48
REMARK   20  A    between atoms: _48  and  _49
REMARK   21  A    between atoms: _51  and  _53
REMARK   22  A    between atoms: _53  and  _54
REMARK   23  A    between atoms: _53  and  _56
REMARK   24  A    between atoms: _56  and  _57
REMARK   25  A    between atoms: _60  and  _62
REMARK   26  A    between atoms: _62  and  _63
REMARK   27  A    between atoms: _65  and  _67
REMARK   28  A    between atoms: _67  and  _68
REMARK   29  A    between atoms: _67  and  _70
REMARK   30  A    between atoms: _70  and  _71
REMARK   31  A    between atoms: _71  and  _72
REMARK   32  A    between atoms: _72  and  _73
REMARK   33  A    between atoms: _82  and  _84
REMARK   34  A    between atoms: _84  and  _85
REMARK   35  A    between atoms: _84  and  _87
REMARK   36  A    between atoms: _87  and  _88
REMARK   37  A    between atoms: _91  and  _93
REMARK   38  A    between atoms: _93  and  _94
REMARK   39  A    between atoms: _97  and  _99
REMARK   40  A    between atoms: _99  and  _100
REMARK   41  A    between atoms: _99  and  _102
REMARK   42  A    between atoms: _102  and  _103
REMARK   43  A    between atoms: _109  and  _111
REMARK   44  A    between atoms: _111  and  _112
REMARK   45  A    between atoms: _111  and  _114
REMARK   46  A    between atoms: _114  and  _115
REMARK   47  A    between atoms: _120  and  _121
REMARK   48  A    between atoms: _124  and  _125
REMARK   49  A    between atoms: _130  and  _132
REMARK   50  A    between atoms: _132  and  _133
REMARK   51  A    between atoms: _132  and  _135
REMARK   52  A    between atoms: _135  and  _136
REMARK   53  A    between atoms: _141  and  _143
REMARK   54  A    between atoms: _143  and  _144
REMARK   55  A    between atoms: _143  and  _146
REMARK   56  A    between atoms: _146  and  _147
REMARK   57  A    between atoms: _150  and  _152
REMARK   58  A    between atoms: _152  and  _153
REMARK   59  A    between atoms: _152  and  _155
REMARK   60  A    between atoms: _155  and  _156
REMARK   61  A    between atoms: _161  and  _163
REMARK   62  A    between atoms: _163  and  _164
REMARK   63  A    between atoms: _163  and  _166
REMARK   64  A    between atoms: _166  and  _167
REMARK   65  A    between atoms: _173  and  _175
REMARK   66  A    between atoms: _175  and  _176
REMARK   67  A    between atoms: _175  and  _178
REMARK   68  A    between atoms: _178  and  _179
REMARK   69  A    between atoms: _185  and  _187
REMARK   70  A    between atoms: _187  and  _188
REMARK   71  A    between atoms: _187  and  _190
REMARK   72  A    between atoms: _190  and  _191
REMARK   73  A    between atoms: _191  and  _192
REMARK   74  A    between atoms: _195  and  _197
REMARK   75  A    between atoms: _197  and  _198
REMARK   76  A    between atoms: _197  and  _200
REMARK   77  A    between atoms: _200  and  _201
REMARK   78  A    between atoms: _201  and  _202
REMARK   79  A    between atoms: _202  and  _203
REMARK   80  A    between atoms: _212  and  _214
REMARK   81  A    between atoms: _214  and  _215
REMARK   82  A    between atoms: _214  and  _217
REMARK   83  A    between atoms: _217  and  _218
REMARK   84  A    between atoms: _223  and  _225
REMARK   85  A    between atoms: _225  and  _226
REMARK   86  A    between atoms: _225  and  _228
REMARK   87  A    between atoms: _228  and  _229
REMARK   88  A    between atoms: _232  and  _234
REMARK   89  A    between atoms: _234  and  _235
REMARK   90  A    between atoms: _234  and  _237
REMARK   91  A    between atoms: _237  and  _238
REMARK   92  A    between atoms: _241  and  _243
REMARK   93  A    between atoms: _243  and  _244
REMARK   94  A    between atoms: _243  and  _246
REMARK   95  A    between atoms: _246  and  _247
REMARK   96  A    between atoms: _252  and  _254
REMARK   97  A    between atoms: _254  and  _255
REMARK   98  A    between atoms: _254  and  _257
REMARK   99  A    between atoms: _257  and  _258
REMARK  100  A    between atoms: _261  and  _263
REMARK  101  A    between atoms: _263  and  _264
REMARK  102  A    between atoms: _263  and  _266
REMARK  103  A    between atoms: _266  and  _267
REMARK  104  A    between atoms: _272  and  _274
REMARK  105  A    between atoms: _274  and  _275
REMARK  106  A    between atoms: _274  and  _277
REMARK  107  A    between atoms: _277  and  _278
REMARK  108  A    between atoms: _283  and  _285
REMARK  109  A    between atoms: _285  and  _286
REMARK  110  A    between atoms: _285  and  _288
REMARK  111  A    between atoms: _288  and  _289
REMARK  112  A    between atoms: _292  and  _294
REMARK  113  A    between atoms: _294  and  _295
REMARK  114  A    between atoms: _294  and  _297
REMARK  115  A    between atoms: _300  and  _302
REMARK  116  A    between atoms: _302  and  _303
REMARK  117  A    between atoms: _302  and  _305
REMARK  118  A    between atoms: _305  and  _306
REMARK  119  A    between atoms: _309  and  _311
REMARK  120  A    between atoms: _311  and  _312
REMARK  121  A    between atoms: _311  and  _314
REMARK  122  A    between atoms: _314  and  _315
REMARK  123  A    between atoms: _315  and  _316
REMARK  124  A    between atoms: _319  and  _321
REMARK  125  A    between atoms: _321  and  _322
REMARK  126  A    between atoms: _325  and  _327
REMARK  127  A    between atoms: _327  and  _328
REMARK  128  A    between atoms: _327  and  _330
REMARK  129  A    between atoms: _330  and  _331
REMARK  130  A    between atoms: _334  and  _336
REMARK  131  A    between atoms: _336  and  _337
REMARK  132  A    between atoms: _336  and  _339
REMARK  133  A    between atoms: _339  and  _340
REMARK  134  A    between atoms: _340  and  _341
REMARK  135  A    between atoms: _344  and  _346
REMARK  136  A    between atoms: _346  and  _347
REMARK  137  A    between atoms: _346  and  _349
REMARK  138  A    between atoms: _349  and  _350
REMARK  139  A    between atoms: _355  and  _357
REMARK  140  A    between atoms: _357  and  _358
REMARK  141  A    between atoms: _360  and  _362
REMARK  142  A    between atoms: _362  and  _363
REMARK  143  A    between atoms: _362  and  _365
REMARK  144  A    between atoms: _368  and  _370
REMARK  145  A    between atoms: _370  and  _371
REMARK  146  A    between atoms: _374  and  _376
REMARK  147  A    between atoms: _376  and  _377
REMARK  148  A    between atoms: _376  and  _379
REMARK  149  A    between atoms: _379  and  _380
REMARK  150  A    between atoms: _385  and  _387
REMARK  151  A    between atoms: _387  and  _388
REMARK  152  A    between atoms: _387  and  _390
REMARK  153  A    between atoms: _390  and  _391
REMARK  154  A    between atoms: _391  and  _392
REMARK  155  A    between atoms: _392  and  _393
REMARK  156  A    between atoms: _393  and  _394
REMARK  157  A    between atoms: _398  and  _400
REMARK  158  A    between atoms: _400  and  _401
REMARK  159  A    between atoms: _400  and  _403
REMARK  160  A    between atoms: _403  and  _404
REMARK  161  A    between atoms: _407  and  _409
REMARK  162  A    between atoms: _409  and  _410
REMARK  163  A    between atoms: _409  and  _412
REMARK  164  A    between atoms: _412  and  _413
REMARK  165  A    between atoms: _418  and  _420
REMARK  166  A    between atoms: _420  and  _421
REMARK  167  A    between atoms: _423  and  _425
REMARK  168  A    between atoms: _425  and  _426
REMARK  169  A    between atoms: _425  and  _428
REMARK  170  A    between atoms: _428  and  _429
REMARK  171  A    between atoms: _429  and  _430
REMARK  172  A    between atoms: _430  and  _431
REMARK  173  A    between atoms: _431  and  _432
REMARK  174  A    between atoms: _436  and  _438
REMARK  175  A    between atoms: _438  and  _439
REMARK  176  A    between atoms: _438  and  _441
REMARK  177  A    between atoms: _441  and  _442
REMARK  178  A    between atoms: _442  and  _443
REMARK  179  A    between atoms: _443  and  _444
REMARK  180  A    between atoms: _453  and  _455
REMARK  181  A    between atoms: _455  and  _456
REMARK  182  A    between atoms: _455  and  _458
REMARK  183  A    between atoms: _458  and  _459
REMARK  184  A    between atoms: _464  and  _465
REMARK  185  A    between atoms: _467  and  _469
REMARK  186  A    between atoms: _469  and  _470
REMARK  187  A    between atoms: _469  and  _472
REMARK  188  A    between atoms: _472  and  _473
REMARK  189  A    between atoms: _473  and  _474
REMARK  190  A    between atoms: _474  and  _475
REMARK  191  A    between atoms: _475  and  _476
REMARK  192  A    between atoms: _480  and  _482
REMARK  193  A    between atoms: _482  and  _483
REMARK  194  A    between atoms: _482  and  _485
REMARK  195  A    between atoms: _485  and  _486
REMARK  196  A    between atoms: _488  and  _490
REMARK  197  A    between atoms: _490  and  _491
REMARK  198  A    between atoms: _490  and  _493
REMARK  199  A    between atoms: _493  and  _494
REMARK  200  A    between atoms: _497  and  _499
REMARK  201  A    between atoms: _499  and  _500
REMARK  202  A    between atoms: _499  and  _502
REMARK  203  A    between atoms: _502  and  _503
REMARK  204  A    between atoms: _503  and  _504
REMARK  205  A    between atoms: _507  and  _509
REMARK  206  A    between atoms: _509  and  _510
REMARK  207  A    between atoms: _513  and  _515
REMARK  208  A    between atoms: _515  and  _516
REMARK  209  A    between atoms: _515  and  _518
REMARK  210  A    between atoms: _518  and  _519
REMARK  211  A    between atoms: _521  and  _523
REMARK  212  A    between atoms: _523  and  _524
REMARK  213  A    between atoms: _526  and  _528
REMARK  214  A    between atoms: _528  and  _529
REMARK  215  A    between atoms: _528  and  _531
REMARK  216  A    between atoms: _531  and  _532
REMARK  217  A    between atoms: _535  and  _537
REMARK  218  A    between atoms: _537  and  _538
REMARK  219  A    between atoms: _540  and  _542
REMARK  220  A    between atoms: _542  and  _543
REMARK  221  A    between atoms: _542  and  _545
REMARK  222  A    between atoms: _545  and  _546
REMARK  223  A    between atoms: _551  and  _553
REMARK  224  A    between atoms: _553  and  _554
REMARK  225  A    between atoms: _553  and  _556
REMARK  226  A    between atoms: _556  and  _557
REMARK  227  A    between atoms: _557  and  _558
REMARK  228  A    between atoms: _565  and  _566
REMARK  229  A    between atoms: _566  and  _582
REMARK  230  A    between atoms: _567  and  _569
REMARK  231  A    between atoms: _569  and  _570
REMARK  232  A    between atoms: _570  and  _571
REMARK  233  A    between atoms: _575  and  _577
REMARK  234  A    between atoms: _577  and  _578
REMARK  235  A    between atoms: _577  and  _585
REMARK  236  A    between atoms: _578  and  _579
REMARK  237  A    between atoms: _579  and  _580
REMARK  238  A    between atoms: _580  and  _581
REMARK  239  A    between atoms: _581  and  _582
REMARK  240  A    between atoms: _587  and  _589
REMARK  241  A    between atoms: _589  and  _590
REMARK  242  A    between atoms: _589  and  _592
REMARK  243  A    between atoms: _592  and  _593
REMARK  244  A    between atoms: _596  and  _598
REMARK  245  A    between atoms: _598  and  _599
REMARK  246  A    between atoms: _601  and  _603
REMARK  247  A    between atoms: _603  and  _604
REMARK  248  A    between atoms: _607  and  _609
REMARK  249  A    between atoms: _609  and  _610
REMARK  250  A    between atoms: _609  and  _612
REMARK  251  A    between atoms: _612  and  _613
REMARK  252  A    between atoms: _618  and  _619
REMARK                            x       y       z     vdW  Elec       q    Type
REMARK                         _______ _______ _______ _____ _____    ______ ____
ROOT
ATOM      1  CA  THR A   2      32.652  12.402  21.512  0.00  0.00    +0.176 C 
ENDROOT
BRANCH   1   4
ATOM      2  C   LYS A   1      34.316  11.357  22.932  0.00  0.00    +0.238 C 
ATOM      3  O   LYS A   1      34.253  12.276  23.749  0.00  0.00    -0.274 OA
ATOM      4  N   THR A   2      33.573  11.318  21.830  0.00  0.00    -0.295 N 
ATOM      5  H   THR A   2      33.650  10.504  21.187  0.00  0.00    +0.150 HD
BRANCH   2   6
ATOM      6  CA  LYS A   1      35.281  10.203  23.140  0.00  0.00    +0.145 C 
BRANCH   6   7
ATOM      7  N   LYS A   1      36.573  10.606  22.597  0.00  0.00    -0.238 NA
ATOM      8  H   LYS A   1      36.904  11.579  22.760  0.00  0.00    +0.142 HD
ENDBRANCH   6   7
BRANCH   6   9
ATOM      9  CB  LYS A   1      35.378   9.854  24.632  0.00  0.00    +0.026 C 
BRANCH   9  10
ATOM     10  CG  LYS A   1      36.287   8.682  24.970  0.00  0.00    -0.000 C 
BRANCH  10  11
ATOM     11  CD  LYS A   1      35.675   7.343  24.562  0.00  0.00    -0.024 C 
BRANCH  11  12
ATOM     12  CE  LYS A   1      36.705   6.215  24.642  0.00  0.00    -0.086 C 
BRANCH  12  13
ATOM     13  NZ  LYS A   1      37.612   6.196  23.453  0.00  0.00    +0.380 N 
ATOM     14  HZ1 LYS A   1      38.293   5.416  23.550  0.00  0.00    -0.089 HD
ATOM     15  HZ2 LYS A   1      38.124   7.099  23.395  0.00  0.00    -0.089 HD
ATOM     16  HZ3 LYS A   1      37.048   6.060  22.590  0.00  0.00    -0.089 HD
ENDBRANCH  12  13
ENDBRANCH  11  12
ENDBRANCH  10  11
ENDBRANCH   9  10
ENDBRANCH   6   9
ENDBRANCH   2   6
ENDBRANCH   1   4
BRANCH   1  17
ATOM     17  C   THR A   2      31.596  12.518  22.611  0.00  0.00    +0.243 C 
ATOM     18  O   THR A   2      31.050  11.514  23.062  0.00  0.00    -0.273 OA
ATOM     19  N   ASN A   3      31.358  13.749  23.054  0.00  0.00    -0.297 N 
ATOM     20  H   ASN A   3      31.878  14.540  22.624  0.00  0.00    +0.150 HD
BRANCH  19  21
ATOM     21  CA  ASN A   3      30.400  14.042  24.117  0.00  0.00    +0.158 C 
BRANCH  21  22
ATOM     22  C   ASN A   3      28.982  13.583  23.775  0.00  0.00    +0.241 C 
ATOM     23  N   GLY A   4      28.130  13.551  24.792  0.00  0.00    -0.296 N 
ATOM     24  H   GLY A   4      28.481  13.767  25.747  0.00  0.00    +0.150 HD
ATOM     25  O   ASN A   3      28.673  13.260  22.626  0.00  0.00    -0.273 OA
BRANCH  23  26
ATOM     26  CA  GLY A   4      26.728  13.226  24.619  0.00  0.00    +0.163 C 
BRANCH  26  27
ATOM     27  C   GLY A   4      25.891  13.874  25.703  0.00  0.00    +0.229 C 
ATOM     28  O   GLY A   4      26.423  14.517  26.612  0.00  0.00    -0.286 OA
ENDBRANCH  26  27
ENDBRANCH  23  26
ENDBRANCH  21  22
BRANCH  21  29
ATOM     29  CB  ASN A   3      30.395  15.550  24.432  0.00  0.00    +0.114 C 
BRANCH  29  30
ATOM     30  CG  ASN A   3      31.524  15.972  25.379  0.00  0.00    +0.222 C 
ATOM     31  ND2 ASN A   3      32.205  15.005  25.965  0.00  0.00    -0.329 N 
ATOM     32 HD21 ASN A   3      32.969  15.237  26.632  0.00  0.00    +0.145 HD
ATOM     33 HD22 ASN A   3      31.978  14.011  25.760  0.00  0.00    +0.145 HD
ATOM     34  OD1 ASN A   3      31.756  17.171  25.590  0.00  0.00    -0.275 OA
ENDBRANCH  29  30
ENDBRANCH  21  29
ENDBRANCH  19  21
ENDBRANCH   1  17
BRANCH   1  35
ATOM     35  CB  THR A   2      32.008  12.218  20.120  0.00  0.00    +0.137 C 
ATOM     36  CG2 THR A   2      31.085  13.383  19.793  0.00  0.00    +0.034 C 
BRANCH  35  37
ATOM     37  OG1 THR A   2      33.047  12.157  19.133  0.00  0.00    -0.382 OA
ATOM     38  HG1 THR A   2      32.643  12.039  18.237  0.00  0.00    +0.210 HD
ENDBRANCH  35  37
ENDBRANCH   1  35
TORSDOF 17
REMARK  Name = ../refined-set-2016/2qrh/2qrh_pocket.pdb
REMARK  252 active torsions:
REMARK  status: ('A' for Active; 'I' for Inactive)
REMARK    1  A    between atoms: _1  and  _3
REMARK    2  A    between atoms: _3  and  _4
REMARK    3  A    between atoms: _3  and  _6
REMARK    4  A    between atoms: _6  and  _7
REMARK    5  A    between atoms: _12  and  _13
REMARK    6  A    between atoms: _15  and  _17
REMARK    7  A    between atoms: _17  and  _18
REMARK    8  A    between atoms: _17  and  _20
REMARK    9  A    between atoms: _20  and  _21
REMARK   10  A    between atoms: _21  and  _22
REMARK   11  A    between atoms: _25  and  _27
REMARK   12  A    between atoms: _27  and  _28
REMARK   13  A    between atoms: _30  and  _32
REMARK   14  A    between atoms: _32  and  _33
REMARK   15  A    between atoms: _32  and  _35
REMARK   16  A    between atoms: _35  and  _36
REMARK   17  A    between atoms: _41  and  _43
REMARK   18  A    between atoms: _43  and  _44
REMARK   19  A    between atoms: _46  and  _48
REMARK   20  A    between atoms: _48  and  _49
REMARK   21  A    between atoms: _51  and  _53
REMARK   22  A    between atoms: _53  and  _54
REMARK   23  A    between atoms: _53  and  _56
REMARK   24  A    between atoms: _56  and  _57
REMARK   25  A    between atoms: _60  and  _62
REMARK   26  A    between atoms: _62  and  _63
REMARK   27  A    between atoms: _65  and  _67
REMARK   28  A    between atoms: _67  and  _68
REMARK   29  A    between atoms: _67  and  _70
REMARK   30  A    between atoms: _70  and  _71
REMARK   31  A    between atoms: _71  and  _72
REMARK   32  A    between atoms: _72  and  _73
REMARK   33  A    between atoms: _82  and  _84
REMARK   34  A    between atoms: _84  and  _85
REMARK   35  A    between atoms: _84  and  _87
REMARK   36  A    between atoms: _87  and  _88
REMARK   37  A    between atoms: _91  and  _93
REMARK   38  A    between atoms: _93  and  _94
REMARK   39  A    between atoms: _97  and  _99
REMARK   40  A    between atoms: _99  and  _100
REMARK   41  A    between atoms: _99  and  _102
REMARK   42  A    between atoms: _102  and  _103
REMARK   43  A    between atoms: _109  and  _111
REMARK   44  A    between atoms: _111  and  _112
REMARK   45  A    between atoms: _111  and  _114
REMARK   46  A    between atoms: _114  and  _115
REMARK   47  A    between atoms: _120  and  _121
REMARK   48  A    between atoms: _124  and  _125
REMARK   49  A    between atoms: _130  and  _132
REMARK   50  A    between atoms: _132  and  _133
REMARK   51  A    between atoms: _132  and  _135
REMARK   52  A    between atoms: _135  and  _136
REMARK   53  A    between atoms: _141  and  _143
REMARK   54  A    between atoms: _143  and  _144
REMARK   55  A    between atoms: _143  and  _146
REMARK   56  A    between atoms: _146  and  _147
REMARK   57  A    between atoms: _150  and  _152
REMARK   58  A    between atoms: _152  and  _153
REMARK   59  A    between atoms: _152  and  _155
REMARK   60  A    between atoms: _155  and  _156
REMARK   61  A    between atoms: _161  and  _163
REMARK   62  A    between atoms: _163  and  _164
REMARK   63  A    between atoms: _163  and  _166
REMARK   64  A    between atoms: _166  and  _167
REMARK   65  A    between atoms: _173  and  _175
REMARK   66  A    between atoms: _175  and  _176
REMARK   67  A    between atoms: _175  and  _178
REMARK   68  A    between atoms: _178  and  _179
REMARK   69  A    between atoms: _185  and  _187
REMARK   70  A    between atoms: _187  and  _188
REMARK   71  A    between atoms: _187  and  _190
REMARK   72  A    between atoms: _190  and  _191
REMARK   73  A    between atoms: _191  and  _192
REMARK   74  A    between atoms: _195  and  _197
REMARK   75  A    between atoms: _197  and  _198
REMARK   76  A    between atoms: _197  and  _200
REMARK   77  A    between atoms: _200  and  _201
REMARK   78  A    between atoms: _201  and  _202
REMARK   79  A    between atoms: _202  and  _203
REMARK   80  A    between atoms: _212  and  _214
REMARK   81  A    between atoms: _214  and  _215
REMARK   82  A    between atoms: _214  and  _217
REMARK   83  A    between atoms: _217  and  _218
REMARK   84  A    between atoms: _223  and  _225
REMARK   85  A    between atoms: _225  and  _226
REMARK   86  A    between atoms: _225  and  _228
REMARK   87  A    between atoms: _228  and  _229
REMARK   88  A    between atoms: _232  and  _234
REMARK   89  A    between atoms: _234  and  _235
REMARK   90  A    between atoms: _234  and  _237
REMARK   91  A    between atoms: _237  and  _238
REMARK   92  A    between atoms: _241  and  _243
REMARK   93  A    between atoms: _243  and  _244
REMARK   94  A    between atoms: _243  and  _246
REMARK   95  A    between atoms: _246  and  _247
REMARK   96  A    between atoms: _252  and  _254
REMARK   97  A    between atoms: _254  and  _255
REMARK   98  A    between atoms: _254  and  _257
REMARK   99  A    between atoms: _257  and  _258
REMARK  100  A    between atoms: _261  and  _263
REMARK  101  A    between atoms: _263  and  _264
REMARK  102  A    between atoms: _263  and  _266
REMARK  103  A    between atoms: _266  and  _267
REMARK  104  A    between atoms: _272  and  _274
REMARK  105  A    between atoms: _274  and  _275
REMARK  106  A    between atoms: _274  and  _277
REMARK  107  A    between atoms: _277  and  _278
REMARK  108  A    between atoms: _283  and  _285
REMARK  109  A    between atoms: _285  and  _286
REMARK  110  A    between atoms: _285  and  _288
REMARK  111  A    between atoms: _288  and  _289
REMARK  112  A    between atoms: _292  and  _294
REMARK  113  A    between atoms: _294  and  _295
REMARK  114  A    between atoms: _294  and  _297
REMARK  115  A    between atoms: _300  and  _302
REMARK  116  A    between atoms: _302  and  _303
REMARK  117  A    between atoms: _302  and  _305
REMARK  118  A    between atoms: _305  and  _306
REMARK  119  A    between atoms: _309  and  _311
REMARK  120  A    between atoms: _311  and  _312
REMARK  121  A    between atoms: _311  and  _314
REMARK  122  A    between atoms: _314  and  _315
REMARK  123  A    between atoms: _315  and  _316
REMARK  124  A    between atoms: _319  and  _321
REMARK  125  A    between atoms: _321  and  _322
REMARK  126  A    between atoms: _325  and  _327
REMARK  127  A    between atoms: _327  and  _328
REMARK  128  A    between atoms: _327  and  _330
REMARK  129  A    between atoms: _330  and  _331
REMARK  130  A    between atoms: _334  and  _336
REMARK  131  A    between atoms: _336  and  _337
REMARK  132  A    between atoms: _336  and  _339
REMARK  133  A    between atoms: _339  and  _340
REMARK  134  A    between atoms: _340  and  _341
REMARK  135  A    between atoms: _344  and  _346
REMARK  136  A    between atoms: _346  and  _347
REMARK  137  A    between atoms: _346  and  _349
REMARK  138  A    between atoms: _349  and  _350
REMARK  139  A    between atoms: _355  and  _357
REMARK  140  A    between atoms: _357  and  _358
REMARK  141  A    between atoms: _360  and  _362
REMARK  142  A    between atoms: _362  and  _363
REMARK  143  A    between atoms: _362  and  _365
REMARK  144  A    between atoms: _368  and  _370
REMARK  145  A    between atoms: _370  and  _371
REMARK  146  A    between atoms: _374  and  _376
REMARK  147  A    between atoms: _376  and  _377
REMARK  148  A    between atoms: _376  and  _379
REMARK  149  A    between atoms: _379  and  _380
REMARK  150  A    between atoms: _385  and  _387
REMARK  151  A    between atoms: _387  and  _388
REMARK  152  A    between atoms: _387  and  _390
REMARK  153  A    between atoms: _390  and  _391
REMARK  154  A    between atoms: _391  and  _392
REMARK  155  A    between atoms: _392  and  _393
REMARK  156  A    between atoms: _393  and  _394
REMARK  157  A    between atoms: _398  and  _400
REMARK  158  A    between atoms: _400  and  _401
REMARK  159  A    between atoms: _400  and  _403
REMARK  160  A    between atoms: _403  and  _404
REMARK  161  A    between atoms: _407  and  _409
REMARK  162  A    between atoms: _409  and  _410
REMARK  163  A    between atoms: _409  and  _412
REMARK  164  A    between atoms: _412  and  _413
REMARK  165  A    between atoms: _418  and  _420
REMARK  166  A    between atoms: _420  and  _421
REMARK  167  A    between atoms: _423  and  _425
REMARK  168  A    between atoms: _425  and  _426
REMARK  169  A    between atoms: _425  and  _428
REMARK  170  A    between atoms: _428  and  _429
REMARK  171  A    between atoms: _429  and  _430
REMARK  172  A    between atoms: _430  and  _431
REMARK  173  A    between atoms: _431  and  _432
REMARK  174  A    between atoms: _436  and  _438
REMARK  175  A    between atoms: _438  and  _439
REMARK  176  A    between atoms: _438  and  _441
REMARK  177  A    between atoms: _441  and  _442
REMARK  178  A    between atoms: _442  and  _443
REMARK  179  A    between atoms: _443  and  _444
REMARK  180  A    between atoms: _453  and  _455
REMARK  181  A    between atoms: _455  and  _456
REMARK  182  A    between atoms: _455  and  _458
REMARK  183  A    between atoms: _458  and  _459
REMARK  184  A    between atoms: _464  and  _465
REMARK  185  A    between atoms: _467  and  _469
REMARK  186  A    between atoms: _469  and  _470
REMARK  187  A    between atoms: _469  and  _472
REMARK  188  A    between atoms: _472  and  _473
REMARK  189  A    between atoms: _473  and  _474
REMARK  190  A    between atoms: _474  and  _475
REMARK  191  A    between atoms: _475  and  _476
REMARK  192  A    between atoms: _480  and  _482
REMARK  193  A    between atoms: _482  and  _483
REMARK  194  A    between atoms: _482  and  _485
REMARK  195  A    between atoms: _485  and  _486
REMARK  196  A    between atoms: _488  and  _490
REMARK  197  A    between atoms: _490  and  _491
REMARK  198  A    between atoms: _490  and  _493
REMARK  199  A    between atoms: _493  and  _494
REMARK  200  A    between atoms: _497  and  _499
REMARK  201  A    between atoms: _499  and  _500
REMARK  202  A    between atoms: _499  and  _502
REMARK  203  A    between atoms: _502  and  _503
REMARK  204  A    between atoms: _503  and  _504
REMARK  205  A    between atoms: _507  and  _509
REMARK  206  A    between atoms: _509  and  _510
REMARK  207  A    between atoms: _513  and  _515
REMARK  208  A    between atoms: _515  and  _516
REMARK  209  A    between atoms: _515  and  _518
REMARK  210  A    between atoms: _518  and  _519
REMARK  211  A    between atoms: _521  and  _523
REMARK  212  A    between atoms: _523  and  _524
REMARK  213  A    between atoms: _526  and  _528
REMARK  214  A    between atoms: _528  and  _529
REMARK  215  A    between atoms: _528  and  _531
REMARK  216  A    between atoms: _531  and  _532
REMARK  217  A    between atoms: _535  and  _537
REMARK  218  A    between atoms: _537  and  _538
REMARK  219  A    between atoms: _540  and  _542
REMARK  220  A    between atoms: _542  and  _543
REMARK  221  A    between atoms: _542  and  _545
REMARK  222  A    between atoms: _545  and  _546
REMARK  223  A    between atoms: _551  and  _553
REMARK  224  A    between atoms: _553  and  _554
REMARK  225  A    between atoms: _553  and  _556
REMARK  226  A    between atoms: _556  and  _557
REMARK  227  A    between atoms: _557  and  _558
REMARK  228  A    between atoms: _565  and  _566
REMARK  229  A    between atoms: _566  and  _582
REMARK  230  A    between atoms: _567  and  _569
REMARK  231  A    between atoms: _569  and  _570
REMARK  232  A    between atoms: _570  and  _571
REMARK  233  A    between atoms: _575  and  _577
REMARK  234  A    between atoms: _577  and  _578
REMARK  235  A    between atoms: _577  and  _585
REMARK  236  A    between atoms: _578  and  _579
REMARK  237  A    between atoms: _579  and  _580
REMARK  238  A    between atoms: _580  and  _581
REMARK  239  A    between atoms: _581  and  _582
REMARK  240  A    between atoms: _587  and  _589
REMARK  241  A    between atoms: _589  and  _590
REMARK  242  A    between atoms: _589  and  _592
REMARK  243  A    between atoms: _592  and  _593
REMARK  244  A    between atoms: _596  and  _598
REMARK  245  A    between atoms: _598  and  _599
REMARK  246  A    between atoms: _601  and  _603
REMARK  247  A    between atoms: _603  and  _604
REMARK  248  A    between atoms: _607  and  _609
REMARK  249  A    between atoms: _609  and  _610
REMARK  250  A    between atoms: _609  and  _612
REMARK  251  A    between atoms: _612  and  _613
REMARK  252  A    between atoms: _618  and  _619
REMARK                            x       y       z     vdW  Elec       q    Type
REMARK                         _______ _______ _______ _____ _____    ______ ____
ROOT
ATOM      1  C   LYS A   1      25.880  30.460  27.172  0.00  0.00    +0.238 C 
ATOM      2  N   ARG A   2      26.960  30.126  27.867  0.00  0.00    -0.298 N 
ATOM      3  H   ARG A   2      27.262  29.132  27.907  0.00  0.00    +0.150 HD
ATOM      4  O   LYS A   1      25.458  31.616  27.118  0.00  0.00    -0.274 OA
ENDROOT
BRANCH   1   5
ATOM      5  CA  LYS A   1      25.168  29.344  26.418  0.00  0.00    +0.145 C 
BRANCH   5   6
ATOM      6  N   LYS A   1      23.846  29.848  26.043  0.00  0.00    -0.238 NA
ATOM      7  H   LYS A   1      23.557  30.775  26.417  0.00  0.00    +0.142 HD
ENDBRANCH   5   6
BRANCH   5   8
ATOM      8  CB  LYS A   1      25.994  28.930  25.186  0.00  0.00    +0.026 C 
BRANCH   8   9
ATOM      9  CG  LYS A   1      26.081  29.990  24.074  0.00  0.00    -0.000 C 
BRANCH   9  10
ATOM     10  CD  LYS A   1      26.710  29.424  22.798  0.00  0.00    -0.024 C 
BRANCH  10  11
ATOM     11  CE  LYS A   1      25.784  28.420  22.108  0.00  0.00    -0.086 C 
BRANCH  11  12
ATOM     12  NZ  LYS A   1      26.494  27.131  21.844  0.00  0.00    +0.380 N 
ATOM     13  HZ1 LYS A   1      26.817  26.724  22.745  0.00  0.00    -0.089 HD
ATOM     14  HZ2 LYS A   1      25.844  26.468  21.376  0.00  0.00    -0.089 HD
ATOM     15  HZ3 LYS A   1      27.313  27.308  21.229  0.00  0.00    -0.089 HD
ENDBRANCH  11  12
ENDBRANCH  10  11
ENDBRANCH   9  10
ENDBRANCH   8   9
ENDBRANCH   5   8
ENDBRANCH   1   5
BRANCH   2  16
ATOM     16  CA  ARG A   2      27.727  31.148  28.577  0.00  0.00    +0.137 C 
BRANCH  16  17
ATOM     17  C   ARG A   2      28.195  32.248  27.618  0.00  0.00    +0.227 C 
ATOM     18  O   ARG A   2      28.475  31.983  26.449  0.00  0.00    -0.286 OA
ENDBRANCH  16  17
BRANCH  16  19
ATOM     19  CB  ARG A   2      28.913  30.516  29.309  0.00  0.00    +0.031 C 
BRANCH  19  20
ATOM     20  CG  ARG A   2      28.511  29.704  30.545  0.00  0.00    +0.045 C 
BRANCH  20  21
ATOM     21  CD  ARG A   2      27.924  30.588  31.654  0.00  0.00    +0.174 C 
BRANCH  21  22
ATOM     22  NE  ARG A   2      28.915  31.527  32.188  0.00  0.00    -0.265 N 
ATOM     23  CZ  ARG A   2      29.640  31.315  33.284  0.00  0.00    +0.342 C 
ATOM     24  NH2 ARG A   2      29.491  30.198  33.989  0.00  0.00    -0.292 N 
ATOM     25 HH21 ARG A   2      30.063  30.042  34.844  0.00  0.00    +0.255 HD
ATOM     26 HH22 ARG A   2      28.803  29.480  33.686  0.00  0.00    +0.255 HD
ATOM     27  NH1 ARG A   2      30.514  32.229  33.678  0.00  0.00    -0.292 N 
ATOM     28 HH11 ARG A   2      31.083  32.069  34.533  0.00  0.00    +0.255 HD
ATOM     29 HH12 ARG A   2      30.631  33.106  33.132  0.00  0.00    +0.255 HD
ATOM     30  HE  ARG A   2      29.062  32.420  31.675  0.00  0.00    +0.259 HD
ENDBRANCH  21  22
ENDBRANCH  20  21
ENDBRANCH  19  20
ENDBRANCH  16  19
ENDBRANCH   2  16
TORSDOF 13
REMARK  Name = ../refined-set-2016/2qrh/2qrh_pocket.pdb
REMARK  252 active torsions:
REMARK  status: ('A' for Active; 'I' for Inactive)
REMARK    1  A    between atoms: _1  and  _3
REMARK    2  A    between atoms: _3  and  _4
REMARK    3  A    between atoms: _3  and  _6
REMARK    4  A    between atoms: _6  and  _7
REMARK    5  A    between atoms: _12  and  _13
REMARK    6  A    between atoms: _15  and  _17
REMARK    7  A    between atoms: _17  and  _18
REMARK    8  A    between atoms: _17  and  _20
REMARK    9  A    between atoms: _20  and  _21
REMARK   10  A    between atoms: _21  and  _22
REMARK   11  A    between atoms: _25  and  _27
REMARK   12  A    between atoms: _27  and  _28
REMARK   13  A    between atoms: _30  and  _32
REMARK   14  A    between atoms: _32  and  _33
REMARK   15  A    between atoms: _32  and  _35
REMARK   16  A    between atoms: _35  and  _36
REMARK   17  A    between atoms: _41  and  _43
REMARK   18  A    between atoms: _43  and  _44
REMARK   19  A    between atoms: _46  and  _48
REMARK   20  A    between atoms: _48  and  _49
REMARK   21  A    between atoms: _51  and  _53
REMARK   22  A    between atoms: _53  and  _54
REMARK   23  A    between atoms: _53  and  _56
REMARK   24  A    between atoms: _56  and  _57
REMARK   25  A    between atoms: _60  and  _62
REMARK   26  A    between atoms: _62  and  _63
REMARK   27  A    between atoms: _65  and  _67
REMARK   28  A    between atoms: _67  and  _68
REMARK   29  A    between atoms: _67  and  _70
REMARK   30  A    between atoms: _70  and  _71
REMARK   31  A    between atoms: _71  and  _72
REMARK   32  A    between atoms: _72  and  _73
REMARK   33  A    between atoms: _82  and  _84
REMARK   34  A    between atoms: _84  and  _85
REMARK   35  A    between atoms: _84  and  _87
REMARK   36  A    between atoms: _87  and  _88
REMARK   37  A    between atoms: _91  and  _93
REMARK   38  A    between atoms: _93  and  _94
REMARK   39  A    between atoms: _97  and  _99
REMARK   40  A    between atoms: _99  and  _100
REMARK   41  A    between atoms: _99  and  _102
REMARK   42  A    between atoms: _102  and  _103
REMARK   43  A    between atoms: _109  and  _111
REMARK   44  A    between atoms: _111  and  _112
REMARK   45  A    between atoms: _111  and  _114
REMARK   46  A    between atoms: _114  and  _115
REMARK   47  A    between atoms: _120  and  _121
REMARK   48  A    between atoms: _124  and  _125
REMARK   49  A    between atoms: _130  and  _132
REMARK   50  A    between atoms: _132  and  _133
REMARK   51  A    between atoms: _132  and  _135
REMARK   52  A    between atoms: _135  and  _136
REMARK   53  A    between atoms: _141  and  _143
REMARK   54  A    between atoms: _143  and  _144
REMARK   55  A    between atoms: _143  and  _146
REMARK   56  A    between atoms: _146  and  _147
REMARK   57  A    between atoms: _150  and  _152
REMARK   58  A    between atoms: _152  and  _153
REMARK   59  A    between atoms: _152  and  _155
REMARK   60  A    between atoms: _155  and  _156
REMARK   61  A    between atoms: _161  and  _163
REMARK   62  A    between atoms: _163  and  _164
REMARK   63  A    between atoms: _163  and  _166
REMARK   64  A    between atoms: _166  and  _167
REMARK   65  A    between atoms: _173  and  _175
REMARK   66  A    between atoms: _175  and  _176
REMARK   67  A    between atoms: _175  and  _178
REMARK   68  A    between atoms: _178  and  _179
REMARK   69  A    between atoms: _185  and  _187
REMARK   70  A    between atoms: _187  and  _188
REMARK   71  A    between atoms: _187  and  _190
REMARK   72  A    between atoms: _190  and  _191
REMARK   73  A    between atoms: _191  and  _192
REMARK   74  A    between atoms: _195  and  _197
REMARK   75  A    between atoms: _197  and  _198
REMARK   76  A    between atoms: _197  and  _200
REMARK   77  A    between atoms: _200  and  _201
REMARK   78  A    between atoms: _201  and  _202
REMARK   79  A    between atoms: _202  and  _203
REMARK   80  A    between atoms: _212  and  _214
REMARK   81  A    between atoms: _214  and  _215
REMARK   82  A    between atoms: _214  and  _217
REMARK   83  A    between atoms: _217  and  _218
REMARK   84  A    between atoms: _223  and  _225
REMARK   85  A    between atoms: _225  and  _226
REMARK   86  A    between atoms: _225  and  _228
REMARK   87  A    between atoms: _228  and  _229
REMARK   88  A    between atoms: _232  and  _234
REMARK   89  A    between atoms: _234  and  _235
REMARK   90  A    between atoms: _234  and  _237
REMARK   91  A    between atoms: _237  and  _238
REMARK   92  A    between atoms: _241  and  _243
REMARK   93  A    between atoms: _243  and  _244
REMARK   94  A    between atoms: _243  and  _246
REMARK   95  A    between atoms: _246  and  _247
REMARK   96  A    between atoms: _252  and  _254
REMARK   97  A    between atoms: _254  and  _255
REMARK   98  A    between atoms: _254  and  _257
REMARK   99  A    between atoms: _257  and  _258
REMARK  100  A    between atoms: _261  and  _263
REMARK  101  A    between atoms: _263  and  _264
REMARK  102  A    between atoms: _263  and  _266
REMARK  103  A    between atoms: _266  and  _267
REMARK  104  A    between atoms: _272  and  _274
REMARK  105  A    between atoms: _274  and  _275
REMARK  106  A    between atoms: _274  and  _277
REMARK  107  A    between atoms: _277  and  _278
REMARK  108  A    between atoms: _283  and  _285
REMARK  109  A    between atoms: _285  and  _286
REMARK  110  A    between atoms: _285  and  _288
REMARK  111  A    between atoms: _288  and  _289
REMARK  112  A    between atoms: _292  and  _294
REMARK  113  A    between atoms: _294  and  _295
REMARK  114  A    between atoms: _294  and  _297
REMARK  115  A    between atoms: _300  and  _302
REMARK  116  A    between atoms: _302  and  _303
REMARK  117  A    between atoms: _302  and  _305
REMARK  118  A    between atoms: _305  and  _306
REMARK  119  A    between atoms: _309  and  _311
REMARK  120  A    between atoms: _311  and  _312
REMARK  121  A    between atoms: _311  and  _314
REMARK  122  A    between atoms: _314  and  _315
REMARK  123  A    between atoms: _315  and  _316
REMARK  124  A    between atoms: _319  and  _321
REMARK  125  A    between atoms: _321  and  _322
REMARK  126  A    between atoms: _325  and  _327
REMARK  127  A    between atoms: _327  and  _328
REMARK  128  A    between atoms: _327  and  _330
REMARK  129  A    between atoms: _330  and  _331
REMARK  130  A    between atoms: _334  and  _336
REMARK  131  A    between atoms: _336  and  _337
REMARK  132  A    between atoms: _336  and  _339
REMARK  133  A    between atoms: _339  and  _340
REMARK  134  A    between atoms: _340  and  _341
REMARK  135  A    between atoms: _344  and  _346
REMARK  136  A    between atoms: _346  and  _347
REMARK  137  A    between atoms: _346  and  _349
REMARK  138  A    between atoms: _349  and  _350
REMARK  139  A    between atoms: _355  and  _357
REMARK  140  A    between atoms: _357  and  _358
REMARK  141  A    between atoms: _360  and  _362
REMARK  142  A    between atoms: _362  and  _363
REMARK  143  A    between atoms: _362  and  _365
REMARK  144  A    between atoms: _368  and  _370
REMARK  145  A    between atoms: _370  and  _371
REMARK  146  A    between atoms: _374  and  _376
REMARK  147  A    between atoms: _376  and  _377
REMARK  148  A    between atoms: _376  and  _379
REMARK  149  A    between atoms: _379  and  _380
REMARK  150  A    between atoms: _385  and  _387
REMARK  151  A    between atoms: _387  and  _388
REMARK  152  A    between atoms: _387  and  _390
REMARK  153  A    between atoms: _390  and  _391
REMARK  154  A    between atoms: _391  and  _392
REMARK  155  A    between atoms: _392  and  _393
REMARK  156  A    between atoms: _393  and  _394
REMARK  157  A    between atoms: _398  and  _400
REMARK  158  A    between atoms: _400  and  _401
REMARK  159  A    between atoms: _400  and  _403
REMARK  160  A    between atoms: _403  and  _404
REMARK  161  A    between atoms: _407  and  _409
REMARK  162  A    between atoms: _409  and  _410
REMARK  163  A    between atoms: _409  and  _412
REMARK  164  A    between atoms: _412  and  _413
REMARK  165  A    between atoms: _418  and  _420
REMARK  166  A    between atoms: _420  and  _421
REMARK  167  A    between atoms: _423  and  _425
REMARK  168  A    between atoms: _425  and  _426
REMARK  169  A    between atoms: _425  and  _428
REMARK  170  A    between atoms: _428  and  _429
REMARK  171  A    between atoms: _429  and  _430
REMARK  172  A    between atoms: _430  and  _431
REMARK  173  A    between atoms: _431  and  _432
REMARK  174  A    between atoms: _436  and  _438
REMARK  175  A    between atoms: _438  and  _439
REMARK  176  A    between atoms: _438  and  _441
REMARK  177  A    between atoms: _441  and  _442
REMARK  178  A    between atoms: _442  and  _443
REMARK  179  A    between atoms: _443  and  _444
REMARK  180  A    between atoms: _453  and  _455
REMARK  181  A    between atoms: _455  and  _456
REMARK  182  A    between atoms: _455  and  _458
REMARK  183  A    between atoms: _458  and  _459
REMARK  184  A    between atoms: _464  and  _465
REMARK  185  A    between atoms: _467  and  _469
REMARK  186  A    between atoms: _469  and  _470
REMARK  187  A    between atoms: _469  and  _472
REMARK  188  A    between atoms: _472  and  _473
REMARK  189  A    between atoms: _473  and  _474
REMARK  190  A    between atoms: _474  and  _475
REMARK  191  A    between atoms: _475  and  _476
REMARK  192  A    between atoms: _480  and  _482
REMARK  193  A    between atoms: _482  and  _483
REMARK  194  A    between atoms: _482  and  _485
REMARK  195  A    between atoms: _485  and  _486
REMARK  196  A    between atoms: _488  and  _490
REMARK  197  A    between atoms: _490  and  _491
REMARK  198  A    between atoms: _490  and  _493
REMARK  199  A    between atoms: _493  and  _494
REMARK  200  A    between atoms: _497  and  _499
REMARK  201  A    between atoms: _499  and  _500
REMARK  202  A    between atoms: _499  and  _502
REMARK  203  A    between atoms: _502  and  _503
REMARK  204  A    between atoms: _503  and  _504
REMARK  205  A    between atoms: _507  and  _509
REMARK  206  A    between atoms: _509  and  _510
REMARK  207  A    between atoms: _513  and  _515
REMARK  208  A    between atoms: _515  and  _516
REMARK  209  A    between atoms: _515  and  _518
REMARK  210  A    between atoms: _518  and  _519
REMARK  211  A    between atoms: _521  and  _523
REMARK  212  A    between atoms: _523  and  _524
REMARK  213  A    between atoms: _526  and  _528
REMARK  214  A    between atoms: _528  and  _529
REMARK  215  A    between atoms: _528  and  _531
REMARK  216  A    between atoms: _531  and  _532
REMARK  217  A    between atoms: _535  and  _537
REMARK  218  A    between atoms: _537  and  _538
REMARK  219  A    between atoms: _540  and  _542
REMARK  220  A    between atoms: _542  and  _543
REMARK  221  A    between atoms: _542  and  _545
REMARK  222  A    between atoms: _545  and  _546
REMARK  223  A    between atoms: _551  and  _553
REMARK  224  A    between atoms: _553  and  _554
REMARK  225  A    between atoms: _553  and  _556
REMARK  226  A    between atoms: _556  and  _557
REMARK  227  A    between atoms: _557  and  _558
REMARK  228  A    between atoms: _565  and  _566
REMARK  229  A    between atoms: _566  and  _582
REMARK  230  A    between atoms: _567  and  _569
REMARK  231  A    between atoms: _569  and  _570
REMARK  232  A    between atoms: _570  and  _571
REMARK  233  A    between atoms: _575  and  _577
REMARK  234  A    between atoms: _577  and  _578
REMARK  235  A    between atoms: _577  and  _585
REMARK  236  A    between atoms: _578  and  _579
REMARK  237  A    between atoms: _579  and  _580
REMARK  238  A    between atoms: _580  and  _581
REMARK  239  A    between atoms: _581  and  _582
REMARK  240  A    between atoms: _587  and  _589
REMARK  241  A    between atoms: _589  and  _590
REMARK  242  A    between atoms: _589  and  _592
REMARK  243  A    between atoms: _592  and  _593
REMARK  244  A    between atoms: _596  and  _598
REMARK  245  A    between atoms: _598  and  _599
REMARK  246  A    between atoms: _601  and  _603
REMARK  247  A    between atoms: _603  and  _604
REMARK  248  A    between atoms: _607  and  _609
REMARK  249  A    between atoms: _609  and  _610
REMARK  250  A    between atoms: _609  and  _612
REMARK  251  A    between atoms: _612  and  _613
REMARK  252  A    between atoms: _618  and  _619
REMARK                            x       y       z     vdW  Elec       q    Type
REMARK                         _______ _______ _______ _____ _____    ______ ____
ROOT
ATOM      1  C   TYR A   1      33.370  32.075  20.688  0.00  0.00    +0.239 C 
ATOM      2  N   LYS A   2      32.341  32.171  21.527  0.00  0.00    -0.298 N 
ATOM      3  H   LYS A   2      32.492  32.600  22.462  0.00  0.00    +0.150 HD
ATOM      4  O   TYR A   1      33.285  31.574  19.571  0.00  0.00    -0.274 OA
ENDROOT
BRANCH   1   5
ATOM      5  CA  TYR A   1      34.705  32.634  21.171  0.00  0.00    +0.149 C 
BRANCH   5   6
ATOM      6  N   TYR A   1      34.556  33.743  22.120  0.00  0.00    -0.238 NA
ATOM      7  H   TYR A   1      34.858  33.624  23.108  0.00  0.00    +0.142 HD
ENDBRANCH   5   6
BRANCH   5   8
ATOM      8  CB  TYR A   1      35.647  31.532  21.684  0.00  0.00    +0.053 C 
BRANCH   8   9
ATOM      9  CG  TYR A   1      35.034  30.421  22.512  0.00  0.00    -0.020 A 
ATOM     10  CD2 TYR A   1      35.057  30.475  23.904  0.00  0.00    -0.001 A 
ATOM     11  CE2 TYR A   1      34.521  29.452  24.673  0.00  0.00    +0.036 A 
ATOM     12  CZ  TYR A   1      33.974  28.341  24.054  0.00  0.00    +0.134 A 
ATOM     13  CE1 TYR A   1      33.952  28.249  22.668  0.00  0.00    +0.036 A 
ATOM     14  CD1 TYR A   1      34.489  29.287  21.904  0.00  0.00    -0.001 A 
BRANCH  12  15
ATOM     15  OH  TYR A   1      33.446  27.326  24.827  0.00  0.00    -0.506 OA
ATOM     16  HH  TYR A   1      33.098  26.611  24.238  0.00  0.00    +0.292 HD
ENDBRANCH  12  15
ENDBRANCH   8   9
ENDBRANCH   5   8
ENDBRANCH   1   5
BRANCH   2  17
ATOM     17  CA  LYS A   2      31.004  31.691  21.174  0.00  0.00    +0.137 C 
BRANCH  17  18
ATOM     18  C   LYS A   2      30.263  32.657  20.237  0.00  0.00    +0.227 C 
ATOM     19  O   LYS A   2      29.233  32.311  19.657  0.00  0.00    -0.286 OA
ENDBRANCH  17  18
BRANCH  17  20
ATOM     20  CB  LYS A   2      30.191  31.395  22.435  0.00  0.00    +0.028 C 
BRANCH  20  21
ATOM     21  CG  LYS A   2      30.725  30.199  23.233  0.00  0.00    -0.000 C 
BRANCH  21  22
ATOM     22  CD  LYS A   2      29.964  30.011  24.533  0.00  0.00    -0.024 C 
BRANCH  22  23
ATOM     23  CE  LYS A   2      30.556  28.916  25.408  0.00  0.00    -0.086 C 
BRANCH  23  24
ATOM     24  NZ  LYS A   2      30.193  27.523  24.971  0.00  0.00    +0.380 N 
ATOM     25  HZ1 LYS A   2      30.632  26.834  25.614  0.00  0.00    -0.089 HD
ATOM     26  HZ2 LYS A   2      29.159  27.412  24.995  0.00  0.00    -0.089 HD
ATOM     27  HZ3 LYS A   2      30.538  27.364  24.003  0.00  0.00    -0.089 HD
ENDBRANCH  23  24
ENDBRANCH  22  23
ENDBRANCH  21  22
ENDBRANCH  20  21
ENDBRANCH  17  20
ENDBRANCH   2  17
TORSDOF 12
REMARK  Name = ../refined-set-2016/2qrh/2qrh_pocket.pdb
REMARK  252 active torsions:
REMARK  status: ('A' for Active; 'I' for Inactive)
REMARK    1  A    between atoms: _1  and  _3
REMARK    2  A    between atoms: _3  and  _4
REMARK    3  A    between atoms: _3  and  _6
REMARK    4  A    between atoms: _6  and  _7
REMARK    5  A    between atoms: _12  and  _13
REMARK    6  A    between atoms: _15  and  _17
REMARK    7  A    between atoms: _17  and  _18
REMARK    8  A    between atoms: _17  and  _20
REMARK    9  A    between atoms: _20  and  _21
REMARK   10  A    between atoms: _21  and  _22
REMARK   11  A    between atoms: _25  and  _27
REMARK   12  A    between atoms: _27  and  _28
REMARK   13  A    between atoms: _30  and  _32
REMARK   14  A    between atoms: _32  and  _33
REMARK   15  A    between atoms: _32  and  _35
REMARK   16  A    between atoms: _35  and  _36
REMARK   17  A    between atoms: _41  and  _43
REMARK   18  A    between atoms: _43  and  _44
REMARK   19  A    between atoms: _46  and  _48
REMARK   20  A    between atoms: _48  and  _49
REMARK   21  A    between atoms: _51  and  _53
REMARK   22  A    between atoms: _53  and  _54
REMARK   23  A    between atoms: _53  and  _56
REMARK   24  A    between atoms: _56  and  _57
REMARK   25  A    between atoms: _60  and  _62
REMARK   26  A    between atoms: _62  and  _63
REMARK   27  A    between atoms: _65  and  _67
REMARK   28  A    between atoms: _67  and  _68
REMARK   29  A    between atoms: _67  and  _70
REMARK   30  A    between atoms: _70  and  _71
REMARK   31  A    between atoms: _71  and  _72
REMARK   32  A    between atoms: _72  and  _73
REMARK   33  A    between atoms: _82  and  _84
REMARK   34  A    between atoms: _84  and  _85
REMARK   35  A    between atoms: _84  and  _87
REMARK   36  A    between atoms: _87  and  _88
REMARK   37  A    between atoms: _91  and  _93
REMARK   38  A    between atoms: _93  and  _94
REMARK   39  A    between atoms: _97  and  _99
REMARK   40  A    between atoms: _99  and  _100
REMARK   41  A    between atoms: _99  and  _102
REMARK   42  A    between atoms: _102  and  _103
REMARK   43  A    between atoms: _109  and  _111
REMARK   44  A    between atoms: _111  and  _112
REMARK   45  A    between atoms: _111  and  _114
REMARK   46  A    between atoms: _114  and  _115
REMARK   47  A    between atoms: _120  and  _121
REMARK   48  A    between atoms: _124  and  _125
REMARK   49  A    between atoms: _130  and  _132
REMARK   50  A    between atoms: _132  and  _133
REMARK   51  A    between atoms: _132  and  _135
REMARK   52  A    between atoms: _135  and  _136
REMARK   53  A    between atoms: _141  and  _143
REMARK   54  A    between atoms: _143  and  _144
REMARK   55  A    between atoms: _143  and  _146
REMARK   56  A    between atoms: _146  and  _147
REMARK   57  A    between atoms: _150  and  _152
REMARK   58  A    between atoms: _152  and  _153
REMARK   59  A    between atoms: _152  and  _155
REMARK   60  A    between atoms: _155  and  _156
REMARK   61  A    between atoms: _161  and  _163
REMARK   62  A    between atoms: _163  and  _164
REMARK   63  A    between atoms: _163  and  _166
REMARK   64  A    between atoms: _166  and  _167
REMARK   65  A    between atoms: _173  and  _175
REMARK   66  A    between atoms: _175  and  _176
REMARK   67  A    between atoms: _175  and  _178
REMARK   68  A    between atoms: _178  and  _179
REMARK   69  A    between atoms: _185  and  _187
REMARK   70  A    between atoms: _187  and  _188
REMARK   71  A    between atoms: _187  and  _190
REMARK   72  A    between atoms: _190  and  _191
REMARK   73  A    between atoms: _191  and  _192
REMARK   74  A    between atoms: _195  and  _197
REMARK   75  A    between atoms: _197  and  _198
REMARK   76  A    between atoms: _197  and  _200
REMARK   77  A    between atoms: _200  and  _201
REMARK   78  A    between atoms: _201  and  _202
REMARK   79  A    between atoms: _202  and  _203
REMARK   80  A    between atoms: _212  and  _214
REMARK   81  A    between atoms: _214  and  _215
REMARK   82  A    between atoms: _214  and  _217
REMARK   83  A    between atoms: _217  and  _218
REMARK   84  A    between atoms: _223  and  _225
REMARK   85  A    between atoms: _225  and  _226
REMARK   86  A    between atoms: _225  and  _228
REMARK   87  A    between atoms: _228  and  _229
REMARK   88  A    between atoms: _232  and  _234
REMARK   89  A    between atoms: _234  and  _235
REMARK   90  A    between atoms: _234  and  _237
REMARK   91  A    between atoms: _237  and  _238
REMARK   92  A    between atoms: _241  and  _243
REMARK   93  A    between atoms: _243  and  _244
REMARK   94  A    between atoms: _243  and  _246
REMARK   95  A    between atoms: _246  and  _247
REMARK   96  A    between atoms: _252  and  _254
REMARK   97  A    between atoms: _254  and  _255
REMARK   98  A    between atoms: _254  and  _257
REMARK   99  A    between atoms: _257  and  _258
REMARK  100  A    between atoms: _261  and  _263
REMARK  101  A    between atoms: _263  and  _264
REMARK  102  A    between atoms: _263  and  _266
REMARK  103  A    between atoms: _266  and  _267
REMARK  104  A    between atoms: _272  and  _274
REMARK  105  A    between atoms: _274  and  _275
REMARK  106  A    between atoms: _274  and  _277
REMARK  107  A    between atoms: _277  and  _278
REMARK  108  A    between atoms: _283  and  _285
REMARK  109  A    between atoms: _285  and  _286
REMARK  110  A    between atoms: _285  and  _288
REMARK  111  A    between atoms: _288  and  _289
REMARK  112  A    between atoms: _292  and  _294
REMARK  113  A    between atoms: _294  and  _295
REMARK  114  A    between atoms: _294  and  _297
REMARK  115  A    between atoms: _300  and  _302
REMARK  116  A    between atoms: _302  and  _303
REMARK  117  A    between atoms: _302  and  _305
REMARK  118  A    between atoms: _305  and  _306
REMARK  119  A    between atoms: _309  and  _311
REMARK  120  A    between atoms: _311  and  _312
REMARK  121  A    between atoms: _311  and  _314
REMARK  122  A    between atoms: _314  and  _315
REMARK  123  A    between atoms: _315  and  _316
REMARK  124  A    between atoms: _319  and  _321
REMARK  125  A    between atoms: _321  and  _322
REMARK  126  A    between atoms: _325  and  _327
REMARK  127  A    between atoms: _327  and  _328
REMARK  128  A    between atoms: _327  and  _330
REMARK  129  A    between atoms: _330  and  _331
REMARK  130  A    between atoms: _334  and  _336
REMARK  131  A    between atoms: _336  and  _337
REMARK  132  A    between atoms: _336  and  _339
REMARK  133  A    between atoms: _339  and  _340
REMARK  134  A    between atoms: _340  and  _341
REMARK  135  A    between atoms: _344  and  _346
REMARK  136  A    between atoms: _346  and  _347
REMARK  137  A    between atoms: _346  and  _349
REMARK  138  A    between atoms: _349  and  _350
REMARK  139  A    between atoms: _355  and  _357
REMARK  140  A    between atoms: _357  and  _358
REMARK  141  A    between atoms: _360  and  _362
REMARK  142  A    between atoms: _362  and  _363
REMARK  143  A    between atoms: _362  and  _365
REMARK  144  A    between atoms: _368  and  _370
REMARK  145  A    between atoms: _370  and  _371
REMARK  146  A    between atoms: _374  and  _376
REMARK  147  A    between atoms: _376  and  _377
REMARK  148  A    between atoms: _376  and  _379
REMARK  149  A    between atoms: _379  and  _380
REMARK  150  A    between atoms: _385  and  _387
REMARK  151  A    between atoms: _387  and  _388
REMARK  152  A    between atoms: _387  and  _390
REMARK  153  A    between atoms: _390  and  _391
REMARK  154  A    between atoms: _391  and  _392
REMARK  155  A    between atoms: _392  and  _393
REMARK  156  A    between atoms: _393  and  _394
REMARK  157  A    between atoms: _398  and  _400
REMARK  158  A    between atoms: _400  and  _401
REMARK  159  A    between atoms: _400  and  _403
REMARK  160  A    between atoms: _403  and  _404
REMARK  161  A    between atoms: _407  and  _409
REMARK  162  A    between atoms: _409  and  _410
REMARK  163  A    between atoms: _409  and  _412
REMARK  164  A    between atoms: _412  and  _413
REMARK  165  A    between atoms: _418  and  _420
REMARK  166  A    between atoms: _420  and  _421
REMARK  167  A    between atoms: _423  and  _425
REMARK  168  A    between atoms: _425  and  _426
REMARK  169  A    between atoms: _425  and  _428
REMARK  170  A    between atoms: _428  and  _429
REMARK  171  A    between atoms: _429  and  _430
REMARK  172  A    between atoms: _430  and  _431
REMARK  173  A    between atoms: _431  and  _432
REMARK  174  A    between atoms: _436  and  _438
REMARK  175  A    between atoms: _438  and  _439
REMARK  176  A    between atoms: _438  and  _441
REMARK  177  A    between atoms: _441  and  _442
REMARK  178  A    between atoms: _442  and  _443
REMARK  179  A    between atoms: _443  and  _444
REMARK  180  A    between atoms: _453  and  _455
REMARK  181  A    between atoms: _455  and  _456
REMARK  182  A    between atoms: _455  and  _458
REMARK  183  A    between atoms: _458  and  _459
REMARK  184  A    between atoms: _464  and  _465
REMARK  185  A    between atoms: _467  and  _469
REMARK  186  A    between atoms: _469  and  _470
REMARK  187  A    between atoms: _469  and  _472
REMARK  188  A    between atoms: _472  and  _473
REMARK  189  A    between atoms: _473  and  _474
REMARK  190  A    between atoms: _474  and  _475
REMARK  191  A    between atoms: _475  and  _476
REMARK  192  A    between atoms: _480  and  _482
REMARK  193  A    between atoms: _482  and  _483
REMARK  194  A    between atoms: _482  and  _485
REMARK  195  A    between atoms: _485  and  _486
REMARK  196  A    between atoms: _488  and  _490
REMARK  197  A    between atoms: _490  and  _491
REMARK  198  A    between atoms: _490  and  _493
REMARK  199  A    between atoms: _493  and  _494
REMARK  200  A    between atoms: _497  and  _499
REMARK  201  A    between atoms: _499  and  _500
REMARK  202  A    between atoms: _499  and  _502
REMARK  203  A    between atoms: _502  and  _503
REMARK  204  A    between atoms: _503  and  _504
REMARK  205  A    between atoms: _507  and  _509
REMARK  206  A    between atoms: _509  and  _510
REMARK  207  A    between atoms: _513  and  _515
REMARK  208  A    between atoms: _515  and  _516
REMARK  209  A    between atoms: _515  and  _518
REMARK  210  A    between atoms: _518  and  _519
REMARK  211  A    between atoms: _521  and  _523
REMARK  212  A    between atoms: _523  and  _524
REMARK  213  A    between atoms: _526  and  _528
REMARK  214  A    between atoms: _528  and  _529
REMARK  215  A    between atoms: _528  and  _531
REMARK  216  A    between atoms: _531  and  _532
REMARK  217  A    between atoms: _535  and  _537
REMARK  218  A    between atoms: _537  and  _538
REMARK  219  A    between atoms: _540  and  _542
REMARK  220  A    between atoms: _542  and  _543
REMARK  221  A    between atoms: _542  and  _545
REMARK  222  A    between atoms: _545  and  _546
REMARK  223  A    between atoms: _551  and  _553
REMARK  224  A    between atoms: _553  and  _554
REMARK  225  A    between atoms: _553  and  _556
REMARK  226  A    between atoms: _556  and  _557
REMARK  227  A    between atoms: _557  and  _558
REMARK  228  A    between atoms: _565  and  _566
REMARK  229  A    between atoms: _566  and  _582
REMARK  230  A    between atoms: _567  and  _569
REMARK  231  A    between atoms: _569  and  _570
REMARK  232  A    between atoms: _570  and  _571
REMARK  233  A    between atoms: _575  and  _577
REMARK  234  A    between atoms: _577  and  _578
REMARK  235  A    between atoms: _577  and  _585
REMARK  236  A    between atoms: _578  and  _579
REMARK  237  A    between atoms: _579  and  _580
REMARK  238  A    between atoms: _580  and  _581
REMARK  239  A    between atoms: _581  and  _582
REMARK  240  A    between atoms: _587  and  _589
REMARK  241  A    between atoms: _589  and  _590
REMARK  242  A    between atoms: _589  and  _592
REMARK  243  A    between atoms: _592  and  _593
REMARK  244  A    between atoms: _596  and  _598
REMARK  245  A    between atoms: _598  and  _599
REMARK  246  A    between atoms: _601  and  _603
REMARK  247  A    between atoms: _603  and  _604
REMARK  248  A    between atoms: _607  and  _609
REMARK  249  A    between atoms: _609  and  _610
REMARK  250  A    between atoms: _609  and  _612
REMARK  251  A    between atoms: _612  and  _613
REMARK  252  A    between atoms: _618  and  _619
REMARK                            x       y       z     vdW  Elec       q    Type
REMARK                         _______ _______ _______ _____ _____    ______ ____
ROOT
ATOM      1  CA  SER A   1      31.751  29.537  17.476  0.00  0.00    +0.163 C 
ENDROOT
BRANCH   1   2
ATOM      2  N   SER A   1      30.373  29.327  17.024  0.00  0.00    -0.237 NA
ATOM      3  H   SER A   1      29.860  28.491  17.369  0.00  0.00    +0.142 HD
ENDBRANCH   1   2
BRANCH   1   4
ATOM      4  C   SER A   1      32.731  29.546  16.293  0.00  0.00    +0.227 C 
ATOM      5  O   SER A   1      32.482  28.917  15.268  0.00  0.00    -0.287 OA
ENDBRANCH   1   4
BRANCH   1   6
ATOM      6  CB  SER A   1      32.135  28.424  18.444  0.00  0.00    +0.162 C 
BRANCH   6   7
ATOM      7  OG  SER A   1      31.911  27.151  17.847  0.00  0.00    -0.380 OA
ATOM      8  H   SER A   1      30.953  27.061  17.614  0.00  0.00    +0.211 HD
ENDBRANCH   6   7
ENDBRANCH   1   6
TORSDOF 4
REMARK  Name = ../refined-set-2016/2qrh/2qrh_pocket.pdb
REMARK  252 active torsions:
REMARK  status: ('A' for Active; 'I' for Inactive)
REMARK    1  A    between atoms: _1  and  _3
REMARK    2  A    between atoms: _3  and  _4
REMARK    3  A    between atoms: _3  and  _6
REMARK    4  A    between atoms: _6  and  _7
REMARK    5  A    between atoms: _12  and  _13
REMARK    6  A    between atoms: _15  and  _17
REMARK    7  A    between atoms: _17  and  _18
REMARK    8  A    between atoms: _17  and  _20
REMARK    9  A    between atoms: _20  and  _21
REMARK   10  A    between atoms: _21  and  _22
REMARK   11  A    between atoms: _25  and  _27
REMARK   12  A    between atoms: _27  and  _28
REMARK   13  A    between atoms: _30  and  _32
REMARK   14  A    between atoms: _32  and  _33
REMARK   15  A    between atoms: _32  and  _35
REMARK   16  A    between atoms: _35  and  _36
REMARK   17  A    between atoms: _41  and  _43
REMARK   18  A    between atoms: _43  and  _44
REMARK   19  A    between atoms: _46  and  _48
REMARK   20  A    between atoms: _48  and  _49
REMARK   21  A    between atoms: _51  and  _53
REMARK   22  A    between atoms: _53  and  _54
REMARK   23  A    between atoms: _53  and  _56
REMARK   24  A    between atoms: _56  and  _57
REMARK   25  A    between atoms: _60  and  _62
REMARK   26  A    between atoms: _62  and  _63
REMARK   27  A    between atoms: _65  and  _67
REMARK   28  A    between atoms: _67  and  _68
REMARK   29  A    between atoms: _67  and  _70
REMARK   30  A    between atoms: _70  and  _71
REMARK   31  A    between atoms: _71  and  _72
REMARK   32  A    between atoms: _72  and  _73
REMARK   33  A    between atoms: _82  and  _84
REMARK   34  A    between atoms: _84  and  _85
REMARK   35  A    between atoms: _84  and  _87
REMARK   36  A    between atoms: _87  and  _88
REMARK   37  A    between atoms: _91  and  _93
REMARK   38  A    between atoms: _93  and  _94
REMARK   39  A    between atoms: _97  and  _99
REMARK   40  A    between atoms: _99  and  _100
REMARK   41  A    between atoms: _99  and  _102
REMARK   42  A    between atoms: _102  and  _103
REMARK   43  A    between atoms: _109  and  _111
REMARK   44  A    between atoms: _111  and  _112
REMARK   45  A    between atoms: _111  and  _114
REMARK   46  A    between atoms: _114  and  _115
REMARK   47  A    between atoms: _120  and  _121
REMARK   48  A    between atoms: _124  and  _125
REMARK   49  A    between atoms: _130  and  _132
REMARK   50  A    between atoms: _132  and  _133
REMARK   51  A    between atoms: _132  and  _135
REMARK   52  A    between atoms: _135  and  _136
REMARK   53  A    between atoms: _141  and  _143
REMARK   54  A    between atoms: _143  and  _144
REMARK   55  A    between atoms: _143  and  _146
REMARK   56  A    between atoms: _146  and  _147
REMARK   57  A    between atoms: _150  and  _152
REMARK   58  A    between atoms: _152  and  _153
REMARK   59  A    between atoms: _152  and  _155
REMARK   60  A    between atoms: _155  and  _156
REMARK   61  A    between atoms: _161  and  _163
REMARK   62  A    between atoms: _163  and  _164
REMARK   63  A    between atoms: _163  and  _166
REMARK   64  A    between atoms: _166  and  _167
REMARK   65  A    between atoms: _173  and  _175
REMARK   66  A    between atoms: _175  and  _176
REMARK   67  A    between atoms: _175  and  _178
REMARK   68  A    between atoms: _178  and  _179
REMARK   69  A    between atoms: _185  and  _187
REMARK   70  A    between atoms: _187  and  _188
REMARK   71  A    between atoms: _187  and  _190
REMARK   72  A    between atoms: _190  and  _191
REMARK   73  A    between atoms: _191  and  _192
REMARK   74  A    between atoms: _195  and  _197
REMARK   75  A    between atoms: _197  and  _198
REMARK   76  A    between atoms: _197  and  _200
REMARK   77  A    between atoms: _200  and  _201
REMARK   78  A    between atoms: _201  and  _202
REMARK   79  A    between atoms: _202  and  _203
REMARK   80  A    between atoms: _212  and  _214
REMARK   81  A    between atoms: _214  and  _215
REMARK   82  A    between atoms: _214  and  _217
REMARK   83  A    between atoms: _217  and  _218
REMARK   84  A    between atoms: _223  and  _225
REMARK   85  A    between atoms: _225  and  _226
REMARK   86  A    between atoms: _225  and  _228
REMARK   87  A    between atoms: _228  and  _229
REMARK   88  A    between atoms: _232  and  _234
REMARK   89  A    between atoms: _234  and  _235
REMARK   90  A    between atoms: _234  and  _237
REMARK   91  A    between atoms: _237  and  _238
REMARK   92  A    between atoms: _241  and  _243
REMARK   93  A    between atoms: _243  and  _244
REMARK   94  A    between atoms: _243  and  _246
REMARK   95  A    between atoms: _246  and  _247
REMARK   96  A    between atoms: _252  and  _254
REMARK   97  A    between atoms: _254  and  _255
REMARK   98  A    between atoms: _254  and  _257
REMARK   99  A    between atoms: _257  and  _258
REMARK  100  A    between atoms: _261  and  _263
REMARK  101  A    between atoms: _263  and  _264
REMARK  102  A    between atoms: _263  and  _266
REMARK  103  A    between atoms: _266  and  _267
REMARK  104  A    between atoms: _272  and  _274
REMARK  105  A    between atoms: _274  and  _275
REMARK  106  A    between atoms: _274  and  _277
REMARK  107  A    between atoms: _277  and  _278
REMARK  108  A    between atoms: _283  and  _285
REMARK  109  A    between atoms: _285  and  _286
REMARK  110  A    between atoms: _285  and  _288
REMARK  111  A    between atoms: _288  and  _289
REMARK  112  A    between atoms: _292  and  _294
REMARK  113  A    between atoms: _294  and  _295
REMARK  114  A    between atoms: _294  and  _297
REMARK  115  A    between atoms: _300  and  _302
REMARK  116  A    between atoms: _302  and  _303
REMARK  117  A    between atoms: _302  and  _305
REMARK  118  A    between atoms: _305  and  _306
REMARK  119  A    between atoms: _309  and  _311
REMARK  120  A    between atoms: _311  and  _312
REMARK  121  A    between atoms: _311  and  _314
REMARK  122  A    between atoms: _314  and  _315
REMARK  123  A    between atoms: _315  and  _316
REMARK  124  A    between atoms: _319  and  _321
REMARK  125  A    between atoms: _321  and  _322
REMARK  126  A    between atoms: _325  and  _327
REMARK  127  A    between atoms: _327  and  _328
REMARK  128  A    between atoms: _327  and  _330
REMARK  129  A    between atoms: _330  and  _331
REMARK  130  A    between atoms: _334  and  _336
REMARK  131  A    between atoms: _336  and  _337
REMARK  132  A    between atoms: _336  and  _339
REMARK  133  A    between atoms: _339  and  _340
REMARK  134  A    between atoms: _340  and  _341
REMARK  135  A    between atoms: _344  and  _346
REMARK  136  A    between atoms: _346  and  _347
REMARK  137  A    between atoms: _346  and  _349
REMARK  138  A    between atoms: _349  and  _350
REMARK  139  A    between atoms: _355  and  _357
REMARK  140  A    between atoms: _357  and  _358
REMARK  141  A    between atoms: _360  and  _362
REMARK  142  A    between atoms: _362  and  _363
REMARK  143  A    between atoms: _362  and  _365
REMARK  144  A    between atoms: _368  and  _370
REMARK  145  A    between atoms: _370  and  _371
REMARK  146  A    between atoms: _374  and  _376
REMARK  147  A    between atoms: _376  and  _377
REMARK  148  A    between atoms: _376  and  _379
REMARK  149  A    between atoms: _379  and  _380
REMARK  150  A    between atoms: _385  and  _387
REMARK  151  A    between atoms: _387  and  _388
REMARK  152  A    between atoms: _387  and  _390
REMARK  153  A    between atoms: _390  and  _391
REMARK  154  A    between atoms: _391  and  _392
REMARK  155  A    between atoms: _392  and  _393
REMARK  156  A    between atoms: _393  and  _394
REMARK  157  A    between atoms: _398  and  _400
REMARK  158  A    between atoms: _400  and  _401
REMARK  159  A    between atoms: _400  and  _403
REMARK  160  A    between atoms: _403  and  _404
REMARK  161  A    between atoms: _407  and  _409
REMARK  162  A    between atoms: _409  and  _410
REMARK  163  A    between atoms: _409  and  _412
REMARK  164  A    between atoms: _412  and  _413
REMARK  165  A    between atoms: _418  and  _420
REMARK  166  A    between atoms: _420  and  _421
REMARK  167  A    between atoms: _423  and  _425
REMARK  168  A    between atoms: _425  and  _426
REMARK  169  A    between atoms: _425  and  _428
REMARK  170  A    between atoms: _428  and  _429
REMARK  171  A    between atoms: _429  and  _430
REMARK  172  A    between atoms: _430  and  _431
REMARK  173  A    between atoms: _431  and  _432
REMARK  174  A    between atoms: _436  and  _438
REMARK  175  A    between atoms: _438  and  _439
REMARK  176  A    between atoms: _438  and  _441
REMARK  177  A    between atoms: _441  and  _442
REMARK  178  A    between atoms: _442  and  _443
REMARK  179  A    between atoms: _443  and  _444
REMARK  180  A    between atoms: _453  and  _455
REMARK  181  A    between atoms: _455  and  _456
REMARK  182  A    between atoms: _455  and  _458
REMARK  183  A    between atoms: _458  and  _459
REMARK  184  A    between atoms: _464  and  _465
REMARK  185  A    between atoms: _467  and  _469
REMARK  186  A    between atoms: _469  and  _470
REMARK  187  A    between atoms: _469  and  _472
REMARK  188  A    between atoms: _472  and  _473
REMARK  189  A    between atoms: _473  and  _474
REMARK  190  A    between atoms: _474  and  _475
REMARK  191  A    between atoms: _475  and  _476
REMARK  192  A    between atoms: _480  and  _482
REMARK  193  A    between atoms: _482  and  _483
REMARK  194  A    between atoms: _482  and  _485
REMARK  195  A    between atoms: _485  and  _486
REMARK  196  A    between atoms: _488  and  _490
REMARK  197  A    between atoms: _490  and  _491
REMARK  198  A    between atoms: _490  and  _493
REMARK  199  A    between atoms: _493  and  _494
REMARK  200  A    between atoms: _497  and  _499
REMARK  201  A    between atoms: _499  and  _500
REMARK  202  A    between atoms: _499  and  _502
REMARK  203  A    between atoms: _502  and  _503
REMARK  204  A    between atoms: _503  and  _504
REMARK  205  A    between atoms: _507  and  _509
REMARK  206  A    between atoms: _509  and  _510
REMARK  207  A    between atoms: _513  and  _515
REMARK  208  A    between atoms: _515  and  _516
REMARK  209  A    between atoms: _515  and  _518
REMARK  210  A    between atoms: _518  and  _519
REMARK  211  A    between atoms: _521  and  _523
REMARK  212  A    between atoms: _523  and  _524
REMARK  213  A    between atoms: _526  and  _528
REMARK  214  A    between atoms: _528  and  _529
REMARK  215  A    between atoms: _528  and  _531
REMARK  216  A    between atoms: _531  and  _532
REMARK  217  A    between atoms: _535  and  _537
REMARK  218  A    between atoms: _537  and  _538
REMARK  219  A    between atoms: _540  and  _542
REMARK  220  A    between atoms: _542  and  _543
REMARK  221  A    between atoms: _542  and  _545
REMARK  222  A    between atoms: _545  and  _546
REMARK  223  A    between atoms: _551  and  _553
REMARK  224  A    between atoms: _553  and  _554
REMARK  225  A    between atoms: _553  and  _556
REMARK  226  A    between atoms: _556  and  _557
REMARK  227  A    between atoms: _557  and  _558
REMARK  228  A    between atoms: _565  and  _566
REMARK  229  A    between atoms: _566  and  _582
REMARK  230  A    between atoms: _567  and  _569
REMARK  231  A    between atoms: _569  and  _570
REMARK  232  A    between atoms: _570  and  _571
REMARK  233  A    between atoms: _575  and  _577
REMARK  234  A    between atoms: _577  and  _578
REMARK  235  A    between atoms: _577  and  _585
REMARK  236  A    between atoms: _578  and  _579
REMARK  237  A    between atoms: _579  and  _580
REMARK  238  A    between atoms: _580  and  _581
REMARK  239  A    between atoms: _581  and  _582
REMARK  240  A    between atoms: _587  and  _589
REMARK  241  A    between atoms: _589  and  _590
REMARK  242  A    between atoms: _589  and  _592
REMARK  243  A    between atoms: _592  and  _593
REMARK  244  A    between atoms: _596  and  _598
REMARK  245  A    between atoms: _598  and  _599
REMARK  246  A    between atoms: _601  and  _603
REMARK  247  A    between atoms: _603  and  _604
REMARK  248  A    between atoms: _607  and  _609
REMARK  249  A    between atoms: _609  and  _610
REMARK  250  A    between atoms: _609  and  _612
REMARK  251  A    between atoms: _612  and  _613
REMARK  252  A    between atoms: _618  and  _619
REMARK                            x       y       z     vdW  Elec       q    Type
REMARK                         _______ _______ _______ _____ _____    ______ ____
ROOT
ATOM      1  CA  GLY A   7      23.760  22.491  23.912  0.00  0.00    +0.176 C 
ENDROOT
BRANCH   1   2
ATOM      2  C   GLY A   7      23.289  22.154  22.507  0.00  0.00    +0.243 C 
ATOM      3  O   GLY A   7      22.098  21.907  22.282  0.00  0.00    -0.273 OA
ATOM      4  N   ASN A   8      24.230  22.129  21.562  0.00  0.00    -0.297 N 
ATOM      5  H   ASN A   8      25.200  22.411  21.807  0.00  0.00    +0.150 HD
BRANCH   4   6
ATOM      6  CA  ASN A   8      23.933  21.713  20.183  0.00  0.00    +0.158 C 
BRANCH   6   7
ATOM      7  C   ASN A   8      23.151  20.396  20.064  0.00  0.00    +0.241 C 
ATOM      8  N   MET A   9      23.569  19.396  20.837  0.00  0.00    -0.297 N 
ATOM      9  H   MET A   9      24.382  19.560  21.465  0.00  0.00    +0.150 HD
ATOM     10  O   ASN A   8      22.182  20.303  19.294  0.00  0.00    -0.273 OA
BRANCH   8  11
ATOM     11  CA  MET A   9      22.937  18.075  20.844  0.00  0.00    +0.149 C 
BRANCH  11  12
ATOM     12  C   MET A   9      21.534  18.122  21.438  0.00  0.00    +0.241 C 
ATOM     13  N   UNK A  10      21.364  18.926  22.491  0.00  0.00    -0.298 N 
ATOM     14  H   UNK A  10      22.188  19.432  22.874  0.00  0.00    +0.150 HD
ATOM     15  O   MET A   9      20.626  17.442  20.945  0.00  0.00    -0.273 OA
BRANCH  13  16
ATOM     16  C   UNK A  10      20.055  19.121  23.126  0.00  0.00    +0.137 C 
BRANCH  16  17
ATOM     17  C   UNK A  10      19.022  19.670  22.141  0.00  0.00    +0.227 C 
ATOM     18  O   UNK A  10      17.884  19.204  22.112  0.00  0.00    -0.286 OA
ENDBRANCH  16  17
BRANCH  16  19
ATOM     19  C   UNK A  10      20.157  20.051  24.342  0.00  0.00    +0.028 C 
BRANCH  19  20
ATOM     20  C   UNK A  10      21.194  19.638  25.383  0.00  0.00    -0.000 C 
BRANCH  20  21
ATOM     21  C   UNK A  10      21.323  20.679  26.493  0.00  0.00    -0.023 C 
BRANCH  21  22
ATOM     22  C   UNK A  10      22.552  20.415  27.356  0.00  0.00    -0.081 C 
BRANCH  22  23
ATOM     23  N   UNK A  10      22.817  21.552  28.298  0.00  0.00    +0.387 N 
ATOM     24  H   UNK A  10      22.033  22.233  28.240  0.00  0.00    -0.084 HD
ATOM     25  H   UNK A  10      22.884  21.183  29.268  0.00  0.00    -0.084 HD
BRANCH  23  26
ATOM     26  C   UNK A  10      23.958  22.170  27.985  0.00  0.00    -0.051 C 
BRANCH  26  27
ATOM     27  C   UNK A  10      24.163  23.418  28.812  0.00  0.00    -0.007 C 
ATOM     28  C   UNK A  10      25.272  24.237  28.558  0.00  0.00    +0.023 C 
ATOM     29  C   UNK A  10      25.477  25.399  29.294  0.00  0.00    +0.091 C 
ATOM     30  N   UNK A  10      24.597  25.731  30.303  0.00  0.00    -0.263 NA
ATOM     31  C   UNK A  10      23.502  24.935  30.575  0.00  0.00    +0.164 C 
ATOM     32  C   UNK A  10      22.572  25.335  31.682  0.00  0.00    +0.035 C 
ATOM     33  C   UNK A  10      23.275  23.771  29.839  0.00  0.00    +0.189 C 
ATOM     34  O   UNK A  10      22.286  23.071  30.102  0.00  0.00    -0.290 OA
BRANCH  28  35
ATOM     35  C   UNK A  10      26.243  23.926  27.459  0.00  0.00    +0.181 C 
BRANCH  35  36
ATOM     36  O   UNK A  10      25.869  24.557  26.211  0.00  0.00    -0.265 OA
BRANCH  36  37
ATOM     37  P   UNK A  10      26.913  24.897  25.038  0.00  0.00    +0.533 P 
ATOM     38  O   UNK A  10      27.438  23.573  24.627  0.00  0.00    -0.115 OA
ATOM     39  O   UNK A  10      27.928  25.780  25.651  0.00  0.00    -0.115 OA
ATOM     40  O   UNK A  10      26.001  25.556  24.087  0.00  0.00    -0.222 OA
ENDBRANCH  36  37
ENDBRANCH  35  36
ENDBRANCH  28  35
ENDBRANCH  26  27
ENDBRANCH  23  26
ENDBRANCH  22  23
ENDBRANCH  21  22
ENDBRANCH  20  21
ENDBRANCH  19  20
ENDBRANCH  16  19
ENDBRANCH  13  16
ENDBRANCH  11  12
BRANCH  11  41
ATOM     41  CB  MET A   9      23.795  17.074  21.619  0.00  0.00    +0.041 C 
BRANCH  41  42
ATOM     42  CG  MET A   9      25.206  16.924  21.080  0.00  0.00    +0.060 C 
BRANCH  42  43
ATOM     43  SD  MET A   9      26.252  16.043  22.235  0.00  0.00    -0.139 S 
ATOM     44  CE  MET A   9      27.842  16.216  21.431  0.00  0.00    +0.069 C 
ENDBRANCH  42  43
ENDBRANCH  41  42
ENDBRANCH  11  41
ENDBRANCH   8  11
ENDBRANCH   6   7
BRANCH   6  45
ATOM     45  CB  ASN A   8      25.197  21.697  19.293  0.00  0.00    +0.114 C 
BRANCH  45  46
ATOM     46  CG  ASN A   8      26.372  20.903  19.888  0.00  0.00    +0.222 C 
ATOM     47  ND2 ASN A   8      26.161  20.233  21.013  0.00  0.00    -0.329 N 
ATOM     48 HD21 ASN A   8      25.226  20.261  21.467  0.00  0.00    +0.145 HD
ATOM     49 HD22 ASN A   8      26.931  19.680  21.441  0.00  0.00    +0.145 HD
ATOM     50  OD1 ASN A   8      27.465  20.900  19.313  0.00  0.00    -0.275 OA
ENDBRANCH  45  46
ENDBRANCH   6  45
ENDBRANCH   4   6
ENDBRANCH   1   2
BRANCH   1  52
ATOM     51  C   THR A   6      25.141  20.480  24.075  0.00  0.00    +0.243 C 
ATOM     52  N   GLY A   7      25.020  21.800  24.214  0.00  0.00    -0.295 N 
ATOM     53  H   GLY A   7      25.837  22.353  24.544  0.00  0.00    +0.150 HD
ATOM     54  O   THR A   6      24.187  19.735  23.834  0.00  0.00    -0.273 OA
BRANCH  51  55
ATOM     55  CA  THR A   6      26.543  19.904  24.221  0.00  0.00    +0.176 C 
BRANCH  55  57
ATOM     56  C   GLY A   5      28.580  20.603  23.068  0.00  0.00    +0.243 C 
ATOM     57  N   THR A   6      27.549  20.898  23.852  0.00  0.00    -0.295 N 
ATOM     58  H   THR A   6      27.455  21.868  24.215  0.00  0.00    +0.150 HD
ATOM     59  O   GLY A   5      28.823  19.455  22.674  0.00  0.00    -0.273 OA
BRANCH  56  60
ATOM     60  CA  GLY A   5      29.489  21.759  22.691  0.00  0.00    +0.176 C 
BRANCH  60  62
ATOM     61  C   SER A   4      31.248  20.671  21.407  0.00  0.00    +0.243 C 
ATOM     62  N   GLY A   5      30.850  21.264  22.530  0.00  0.00    -0.295 N 
ATOM     63  H   GLY A   5      31.527  21.377  23.312  0.00  0.00    +0.150 HD
ATOM     64  O   SER A   4      30.641  20.769  20.336  0.00  0.00    -0.273 OA
BRANCH  61  65
ATOM     65  CA  SER A   4      32.538  19.868  21.502  0.00  0.00    +0.178 C 
BRANCH  65  67
ATOM     66  C   ALA A   3      34.848  20.631  21.388  0.00  0.00    +0.241 C 
ATOM     67  N   SER A   4      33.643  20.705  21.951  0.00  0.00    -0.295 N 
ATOM     68  H   SER A   4      33.487  21.376  22.730  0.00  0.00    +0.150 HD
ATOM     69  O   ALA A   3      35.135  19.805  20.519  0.00  0.00    -0.273 OA
BRANCH  66  70
ATOM     70  CA  ALA A   3      35.885  21.656  21.855  0.00  0.00    +0.149 C 
ATOM     71  CB  ALA A   3      36.430  21.291  23.229  0.00  0.00    +0.031 C 
BRANCH  70  73
ATOM     72  C   GLU A   2      34.762  23.539  20.759  0.00  0.00    +0.241 C 
ATOM     73  N   ALA A   3      35.355  23.025  21.841  0.00  0.00    -0.297 N 
ATOM     74  H   ALA A   3      35.443  23.611  22.696  0.00  0.00    +0.150 HD
ATOM     75  O   GLU A   2      34.539  22.886  19.739  0.00  0.00    -0.273 OA
BRANCH  72  76
ATOM     76  CA  GLU A   2      34.366  25.008  20.820  0.00  0.00    +0.149 C 
BRANCH  76  79
ATOM     77  C   THR A   1      36.436  26.243  20.484  0.00  0.00    +0.241 C 
ATOM     78  O   THR A   1      36.736  26.139  21.676  0.00  0.00    -0.274 OA
ATOM     79  N   GLU A   2      35.293  25.771  19.988  0.00  0.00    -0.297 N 
ATOM     80  H   GLU A   2      35.057  25.949  18.991  0.00  0.00    +0.150 HD
BRANCH  77  81
ATOM     81  CA  THR A   1      37.385  26.948  19.510  0.00  0.00    +0.172 C 
BRANCH  81  82
ATOM     82  N   THR A   1      37.429  26.365  18.159  0.00  0.00    -0.236 NA
ATOM     83  H   THR A   1      36.592  26.433  17.546  0.00  0.00    +0.142 HD
ENDBRANCH  81  82
BRANCH  81  84
ATOM     84  CB  THR A   1      37.060  28.464  19.487  0.00  0.00    +0.135 C 
ATOM     85  CG2 THR A   1      38.072  29.232  18.639  0.00  0.00    +0.034 C 
BRANCH  84  86
ATOM     86  OG1 THR A   1      35.737  28.673  18.972  0.00  0.00    -0.383 OA
ATOM     87  HG1 THR A   1      35.682  28.313  18.051  0.00  0.00    +0.210 HD
ENDBRANCH  84  86
ENDBRANCH  81  84
ENDBRANCH  77  81
ENDBRANCH  76  79
BRANCH  76  88
ATOM     88  CB  GLU A   2      32.920  25.193  20.341  0.00  0.00    +0.041 C 
BRANCH  88  89
ATOM     89  CG  GLU A   2      31.868  24.683  21.323  0.00  0.00    +0.116 C 
BRANCH  89  90
ATOM     90  CD  GLU A   2      31.714  25.587  22.534  0.00  0.00    +0.365 C 
ATOM     91  OE2 GLU A   2      32.365  25.308  23.563  0.00  0.00    -0.246 OA
ATOM     92  OE1 GLU A   2      30.962  26.584  22.460  0.00  0.00    -0.246 OA
ENDBRANCH  89  90
ENDBRANCH  88  89
ENDBRANCH  76  88
ENDBRANCH  72  76
ENDBRANCH  70  73
ENDBRANCH  66  70
ENDBRANCH  65  67
BRANCH  65  93
ATOM     93  CB  SER A   4      32.354  18.676  22.450  0.00  0.00    +0.166 C 
BRANCH  93  94
ATOM     94  OG  SER A   4      31.166  17.956  22.163  0.00  0.00    -0.380 OA
ATOM     95  H   SER A   4      30.385  18.557  22.262  0.00  0.00    +0.211 HD
ENDBRANCH  93  94
ENDBRANCH  65  93
ENDBRANCH  61  65
ENDBRANCH  60  62
ENDBRANCH  56  60
ENDBRANCH  55  57
BRANCH  55  96
ATOM     96  CB  THR A   6      26.722  19.385  25.653  0.00  0.00    +0.137 C 
ATOM     97  CG2 THR A   6      27.973  18.510  25.765  0.00  0.00    +0.034 C 
BRANCH  96  98
ATOM     98  OG1 THR A   6      26.821  20.494  26.550  0.00  0.00    -0.382 OA
ATOM     99  HG1 THR A   6      26.937  20.160  27.475  0.00  0.00    +0.210 HD
ENDBRANCH  96  98
ENDBRANCH  55  96
ENDBRANCH  51  55
ENDBRANCH   1  52
TORSDOF 44
REMARK  Name = ../refined-set-2016/2qrh/2qrh_pocket.pdb
REMARK  252 active torsions:
REMARK  status: ('A' for Active; 'I' for Inactive)
REMARK    1  A    between atoms: _1  and  _3
REMARK    2  A    between atoms: _3  and  _4
REMARK    3  A    between atoms: _3  and  _6
REMARK    4  A    between atoms: _6  and  _7
REMARK    5  A    between atoms: _12  and  _13
REMARK    6  A    between atoms: _15  and  _17
REMARK    7  A    between atoms: _17  and  _18
REMARK    8  A    between atoms: _17  and  _20
REMARK    9  A    between atoms: _20  and  _21
REMARK   10  A    between atoms: _21  and  _22
REMARK   11  A    between atoms: _25  and  _27
REMARK   12  A    between atoms: _27  and  _28
REMARK   13  A    between atoms: _30  and  _32
REMARK   14  A    between atoms: _32  and  _33
REMARK   15  A    between atoms: _32  and  _35
REMARK   16  A    between atoms: _35  and  _36
REMARK   17  A    between atoms: _41  and  _43
REMARK   18  A    between atoms: _43  and  _44
REMARK   19  A    between atoms: _46  and  _48
REMARK   20  A    between atoms: _48  and  _49
REMARK   21  A    between atoms: _51  and  _53
REMARK   22  A    between atoms: _53  and  _54
REMARK   23  A    between atoms: _53  and  _56
REMARK   24  A    between atoms: _56  and  _57
REMARK   25  A    between atoms: _60  and  _62
REMARK   26  A    between atoms: _62  and  _63
REMARK   27  A    between atoms: _65  and  _67
REMARK   28  A    between atoms: _67  and  _68
REMARK   29  A    between atoms: _67  and  _70
REMARK   30  A    between atoms: _70  and  _71
REMARK   31  A    between atoms: _71  and  _72
REMARK   32  A    between atoms: _72  and  _73
REMARK   33  A    between atoms: _82  and  _84
REMARK   34  A    between atoms: _84  and  _85
REMARK   35  A    between atoms: _84  and  _87
REMARK   36  A    between atoms: _87  and  _88
REMARK   37  A    between atoms: _91  and  _93
REMARK   38  A    between atoms: _93  and  _94
REMARK   39  A    between atoms: _97  and  _99
REMARK   40  A    between atoms: _99  and  _100
REMARK   41  A    between atoms: _99  and  _102
REMARK   42  A    between atoms: _102  and  _103
REMARK   43  A    between atoms: _109  and  _111
REMARK   44  A    between atoms: _111  and  _112
REMARK   45  A    between atoms: _111  and  _114
REMARK   46  A    between atoms: _114  and  _115
REMARK   47  A    between atoms: _120  and  _121
REMARK   48  A    between atoms: _124  and  _125
REMARK   49  A    between atoms: _130  and  _132
REMARK   50  A    between atoms: _132  and  _133
REMARK   51  A    between atoms: _132  and  _135
REMARK   52  A    between atoms: _135  and  _136
REMARK   53  A    between atoms: _141  and  _143
REMARK   54  A    between atoms: _143  and  _144
REMARK   55  A    between atoms: _143  and  _146
REMARK   56  A    between atoms: _146  and  _147
REMARK   57  A    between atoms: _150  and  _152
REMARK   58  A    between atoms: _152  and  _153
REMARK   59  A    between atoms: _152  and  _155
REMARK   60  A    between atoms: _155  and  _156
REMARK   61  A    between atoms: _161  and  _163
REMARK   62  A    between atoms: _163  and  _164
REMARK   63  A    between atoms: _163  and  _166
REMARK   64  A    between atoms: _166  and  _167
REMARK   65  A    between atoms: _173  and  _175
REMARK   66  A    between atoms: _175  and  _176
REMARK   67  A    between atoms: _175  and  _178
REMARK   68  A    between atoms: _178  and  _179
REMARK   69  A    between atoms: _185  and  _187
REMARK   70  A    between atoms: _187  and  _188
REMARK   71  A    between atoms: _187  and  _190
REMARK   72  A    between atoms: _190  and  _191
REMARK   73  A    between atoms: _191  and  _192
REMARK   74  A    between atoms: _195  and  _197
REMARK   75  A    between atoms: _197  and  _198
REMARK   76  A    between atoms: _197  and  _200
REMARK   77  A    between atoms: _200  and  _201
REMARK   78  A    between atoms: _201  and  _202
REMARK   79  A    between atoms: _202  and  _203
REMARK   80  A    between atoms: _212  and  _214
REMARK   81  A    between atoms: _214  and  _215
REMARK   82  A    between atoms: _214  and  _217
REMARK   83  A    between atoms: _217  and  _218
REMARK   84  A    between atoms: _223  and  _225
REMARK   85  A    between atoms: _225  and  _226
REMARK   86  A    between atoms: _225  and  _228
REMARK   87  A    between atoms: _228  and  _229
REMARK   88  A    between atoms: _232  and  _234
REMARK   89  A    between atoms: _234  and  _235
REMARK   90  A    between atoms: _234  and  _237
REMARK   91  A    between atoms: _237  and  _238
REMARK   92  A    between atoms: _241  and  _243
REMARK   93  A    between atoms: _243  and  _244
REMARK   94  A    between atoms: _243  and  _246
REMARK   95  A    between atoms: _246  and  _247
REMARK   96  A    between atoms: _252  and  _254
REMARK   97  A    between atoms: _254  and  _255
REMARK   98  A    between atoms: _254  and  _257
REMARK   99  A    between atoms: _257  and  _258
REMARK  100  A    between atoms: _261  and  _263
REMARK  101  A    between atoms: _263  and  _264
REMARK  102  A    between atoms: _263  and  _266
REMARK  103  A    between atoms: _266  and  _267
REMARK  104  A    between atoms: _272  and  _274
REMARK  105  A    between atoms: _274  and  _275
REMARK  106  A    between atoms: _274  and  _277
REMARK  107  A    between atoms: _277  and  _278
REMARK  108  A    between atoms: _283  and  _285
REMARK  109  A    between atoms: _285  and  _286
REMARK  110  A    between atoms: _285  and  _288
REMARK  111  A    between atoms: _288  and  _289
REMARK  112  A    between atoms: _292  and  _294
REMARK  113  A    between atoms: _294  and  _295
REMARK  114  A    between atoms: _294  and  _297
REMARK  115  A    between atoms: _300  and  _302
REMARK  116  A    between atoms: _302  and  _303
REMARK  117  A    between atoms: _302  and  _305
REMARK  118  A    between atoms: _305  and  _306
REMARK  119  A    between atoms: _309  and  _311
REMARK  120  A    between atoms: _311  and  _312
REMARK  121  A    between atoms: _311  and  _314
REMARK  122  A    between atoms: _314  and  _315
REMARK  123  A    between atoms: _315  and  _316
REMARK  124  A    between atoms: _319  and  _321
REMARK  125  A    between atoms: _321  and  _322
REMARK  126  A    between atoms: _325  and  _327
REMARK  127  A    between atoms: _327  and  _328
REMARK  128  A    between atoms: _327  and  _330
REMARK  129  A    between atoms: _330  and  _331
REMARK  130  A    between atoms: _334  and  _336
REMARK  131  A    between atoms: _336  and  _337
REMARK  132  A    between atoms: _336  and  _339
REMARK  133  A    between atoms: _339  and  _340
REMARK  134  A    between atoms: _340  and  _341
REMARK  135  A    between atoms: _344  and  _346
REMARK  136  A    between atoms: _346  and  _347
REMARK  137  A    between atoms: _346  and  _349
REMARK  138  A    between atoms: _349  and  _350
REMARK  139  A    between atoms: _355  and  _357
REMARK  140  A    between atoms: _357  and  _358
REMARK  141  A    between atoms: _360  and  _362
REMARK  142  A    between atoms: _362  and  _363
REMARK  143  A    between atoms: _362  and  _365
REMARK  144  A    between atoms: _368  and  _370
REMARK  145  A    between atoms: _370  and  _371
REMARK  146  A    between atoms: _374  and  _376
REMARK  147  A    between atoms: _376  and  _377
REMARK  148  A    between atoms: _376  and  _379
REMARK  149  A    between atoms: _379  and  _380
REMARK  150  A    between atoms: _385  and  _387
REMARK  151  A    between atoms: _387  and  _388
REMARK  152  A    between atoms: _387  and  _390
REMARK  153  A    between atoms: _390  and  _391
REMARK  154  A    between atoms: _391  and  _392
REMARK  155  A    between atoms: _392  and  _393
REMARK  156  A    between atoms: _393  and  _394
REMARK  157  A    between atoms: _398  and  _400
REMARK  158  A    between atoms: _400  and  _401
REMARK  159  A    between atoms: _400  and  _403
REMARK  160  A    between atoms: _403  and  _404
REMARK  161  A    between atoms: _407  and  _409
REMARK  162  A    between atoms: _409  and  _410
REMARK  163  A    between atoms: _409  and  _412
REMARK  164  A    between atoms: _412  and  _413
REMARK  165  A    between atoms: _418  and  _420
REMARK  166  A    between atoms: _420  and  _421
REMARK  167  A    between atoms: _423  and  _425
REMARK  168  A    between atoms: _425  and  _426
REMARK  169  A    between atoms: _425  and  _428
REMARK  170  A    between atoms: _428  and  _429
REMARK  171  A    between atoms: _429  and  _430
REMARK  172  A    between atoms: _430  and  _431
REMARK  173  A    between atoms: _431  and  _432
REMARK  174  A    between atoms: _436  and  _438
REMARK  175  A    between atoms: _438  and  _439
REMARK  176  A    between atoms: _438  and  _441
REMARK  177  A    between atoms: _441  and  _442
REMARK  178  A    between atoms: _442  and  _443
REMARK  179  A    between atoms: _443  and  _444
REMARK  180  A    between atoms: _453  and  _455
REMARK  181  A    between atoms: _455  and  _456
REMARK  182  A    between atoms: _455  and  _458
REMARK  183  A    between atoms: _458  and  _459
REMARK  184  A    between atoms: _464  and  _465
REMARK  185  A    between atoms: _467  and  _469
REMARK  186  A    between atoms: _469  and  _470
REMARK  187  A    between atoms: _469  and  _472
REMARK  188  A    between atoms: _472  and  _473
REMARK  189  A    between atoms: _473  and  _474
REMARK  190  A    between atoms: _474  and  _475
REMARK  191  A    between atoms: _475  and  _476
REMARK  192  A    between atoms: _480  and  _482
REMARK  193  A    between atoms: _482  and  _483
REMARK  194  A    between atoms: _482  and  _485
REMARK  195  A    between atoms: _485  and  _486
REMARK  196  A    between atoms: _488  and  _490
REMARK  197  A    between atoms: _490  and  _491
REMARK  198  A    between atoms: _490  and  _493
REMARK  199  A    between atoms: _493  and  _494
REMARK  200  A    between atoms: _497  and  _499
REMARK  201  A    between atoms: _499  and  _500
REMARK  202  A    between atoms: _499  and  _502
REMARK  203  A    between atoms: _502  and  _503
REMARK  204  A    between atoms: _503  and  _504
REMARK  205  A    between atoms: _507  and  _509
REMARK  206  A    between atoms: _509  and  _510
REMARK  207  A    between atoms: _513  and  _515
REMARK  208  A    between atoms: _515  and  _516
REMARK  209  A    between atoms: _515  and  _518
REMARK  210  A    between atoms: _518  and  _519
REMARK  211  A    between atoms: _521  and  _523
REMARK  212  A    between atoms: _523  and  _524
REMARK  213  A    between atoms: _526  and  _528
REMARK  214  A    between atoms: _528  and  _529
REMARK  215  A    between atoms: _528  and  _531
REMARK  216  A    between atoms: _531  and  _532
REMARK  217  A    between atoms: _535  and  _537
REMARK  218  A    between atoms: _537  and  _538
REMARK  219  A    between atoms: _540  and  _542
REMARK  220  A    between atoms: _542  and  _543
REMARK  221  A    between atoms: _542  and  _545
REMARK  222  A    between atoms: _545  and  _546
REMARK  223  A    between atoms: _551  and  _553
REMARK  224  A    between atoms: _553  and  _554
REMARK  225  A    between atoms: _553  and  _556
REMARK  226  A    between atoms: _556  and  _557
REMARK  227  A    between atoms: _557  and  _558
REMARK  228  A    between atoms: _565  and  _566
REMARK  229  A    between atoms: _566  and  _582
REMARK  230  A    between atoms: _567  and  _569
REMARK  231  A    between atoms: _569  and  _570
REMARK  232  A    between atoms: _570  and  _571
REMARK  233  A    between atoms: _575  and  _577
REMARK  234  A    between atoms: _577  and  _578
REMARK  235  A    between atoms: _577  and  _585
REMARK  236  A    between atoms: _578  and  _579
REMARK  237  A    between atoms: _579  and  _580
REMARK  238  A    between atoms: _580  and  _581
REMARK  239  A    between atoms: _581  and  _582
REMARK  240  A    between atoms: _587  and  _589
REMARK  241  A    between atoms: _589  and  _590
REMARK  242  A    between atoms: _589  and  _592
REMARK  243  A    between atoms: _592  and  _593
REMARK  244  A    between atoms: _596  and  _598
REMARK  245  A    between atoms: _598  and  _599
REMARK  246  A    between atoms: _601  and  _603
REMARK  247  A    between atoms: _603  and  _604
REMARK  248  A    between atoms: _607  and  _609
REMARK  249  A    between atoms: _609  and  _610
REMARK  250  A    between atoms: _609  and  _612
REMARK  251  A    between atoms: _612  and  _613
REMARK  252  A    between atoms: _618  and  _619
REMARK                            x       y       z     vdW  Elec       q    Type
REMARK                         _______ _______ _______ _____ _____    ______ ____
ROOT
ATOM      1  C   ASP A   1      32.777  22.235  15.947  0.00  0.00    +0.239 C 
ATOM      2  N   GLY A   2      33.683  21.700  16.761  0.00  0.00    -0.296 N 
ATOM      3  H   GLY A   2      34.679  21.982  16.663  0.00  0.00    +0.150 HD
ATOM      4  O   ASP A   1      31.583  21.930  15.968  0.00  0.00    -0.274 OA
ENDROOT
BRANCH   1   5
ATOM      5  CA  ASP A   1      33.287  23.263  14.948  0.00  0.00    +0.156 C 
BRANCH   5   6
ATOM      6  N   ASP A   1      32.503  23.198  13.723  0.00  0.00    -0.238 NA
ATOM      7  H   ASP A   1      31.466  23.173  13.793  0.00  0.00    +0.142 HD
ENDBRANCH   5   6
BRANCH   5   8
ATOM      8  CB  ASP A   1      33.208  24.669  15.556  0.00  0.00    +0.140 C 
BRANCH   8   9
ATOM      9  CG  ASP A   1      34.310  24.930  16.566  0.00  0.00    +0.367 C 
ATOM     10  OD2 ASP A   1      34.163  25.869  17.372  0.00  0.00    -0.246 OA
ATOM     11  OD1 ASP A   1      35.321  24.189  16.553  0.00  0.00    -0.246 OA
ENDBRANCH   8   9
ENDBRANCH   5   8
ENDBRANCH   1   5
BRANCH   2  12
ATOM     12  CA  GLY A   2      33.317  20.724  17.792  0.00  0.00    +0.176 C 
BRANCH  12  13
ATOM     13  C   GLY A   2      32.442  19.601  17.268  0.00  0.00    +0.243 C 
ATOM     14  N   ALA A   3      31.392  19.278  18.021  0.00  0.00    -0.298 N 
ATOM     15  H   ALA A   3      31.207  19.813  18.894  0.00  0.00    +0.150 HD
ATOM     16  O   GLY A   2      32.700  19.052  16.197  0.00  0.00    -0.273 OA
BRANCH  14  17
ATOM     17  CA  ALA A   3      30.494  18.188  17.647  0.00  0.00    +0.137 C 
ATOM     18  CB  ALA A   3      29.712  17.699  18.857  0.00  0.00    +0.030 C 
BRANCH  17  19
ATOM     19  C   ALA A   3      29.545  18.537  16.494  0.00  0.00    +0.227 C 
ATOM     20  O   ALA A   3      28.900  17.637  15.943  0.00  0.00    -0.286 OA
ENDBRANCH  17  19
ENDBRANCH  14  17
ENDBRANCH  12  13
ENDBRANCH   2  12
TORSDOF 8
REMARK  Name = ../refined-set-2016/2qrh/2qrh_pocket.pdb
REMARK  252 active torsions:
REMARK  status: ('A' for Active; 'I' for Inactive)
REMARK    1  A    between atoms: _1  and  _3
REMARK    2  A    between atoms: _3  and  _4
REMARK    3  A    between atoms: _3  and  _6
REMARK    4  A    between atoms: _6  and  _7
REMARK    5  A    between atoms: _12  and  _13
REMARK    6  A    between atoms: _15  and  _17
REMARK    7  A    between atoms: _17  and  _18
REMARK    8  A    between atoms: _17  and  _20
REMARK    9  A    between atoms: _20  and  _21
REMARK   10  A    between atoms: _21  and  _22
REMARK   11  A    between atoms: _25  and  _27
REMARK   12  A    between atoms: _27  and  _28
REMARK   13  A    between atoms: _30  and  _32
REMARK   14  A    between atoms: _32  and  _33
REMARK   15  A    between atoms: _32  and  _35
REMARK   16  A    between atoms: _35  and  _36
REMARK   17  A    between atoms: _41  and  _43
REMARK   18  A    between atoms: _43  and  _44
REMARK   19  A    between atoms: _46  and  _48
REMARK   20  A    between atoms: _48  and  _49
REMARK   21  A    between atoms: _51  and  _53
REMARK   22  A    between atoms: _53  and  _54
REMARK   23  A    between atoms: _53  and  _56
REMARK   24  A    between atoms: _56  and  _57
REMARK   25  A    between atoms: _60  and  _62
REMARK   26  A    between atoms: _62  and  _63
REMARK   27  A    between atoms: _65  and  _67
REMARK   28  A    between atoms: _67  and  _68
REMARK   29  A    between atoms: _67  and  _70
REMARK   30  A    between atoms: _70  and  _71
REMARK   31  A    between atoms: _71  and  _72
REMARK   32  A    between atoms: _72  and  _73
REMARK   33  A    between atoms: _82  and  _84
REMARK   34  A    between atoms: _84  and  _85
REMARK   35  A    between atoms: _84  and  _87
REMARK   36  A    between atoms: _87  and  _88
REMARK   37  A    between atoms: _91  and  _93
REMARK   38  A    between atoms: _93  and  _94
REMARK   39  A    between atoms: _97  and  _99
REMARK   40  A    between atoms: _99  and  _100
REMARK   41  A    between atoms: _99  and  _102
REMARK   42  A    between atoms: _102  and  _103
REMARK   43  A    between atoms: _109  and  _111
REMARK   44  A    between atoms: _111  and  _112
REMARK   45  A    between atoms: _111  and  _114
REMARK   46  A    between atoms: _114  and  _115
REMARK   47  A    between atoms: _120  and  _121
REMARK   48  A    between atoms: _124  and  _125
REMARK   49  A    between atoms: _130  and  _132
REMARK   50  A    between atoms: _132  and  _133
REMARK   51  A    between atoms: _132  and  _135
REMARK   52  A    between atoms: _135  and  _136
REMARK   53  A    between atoms: _141  and  _143
REMARK   54  A    between atoms: _143  and  _144
REMARK   55  A    between atoms: _143  and  _146
REMARK   56  A    between atoms: _146  and  _147
REMARK   57  A    between atoms: _150  and  _152
REMARK   58  A    between atoms: _152  and  _153
REMARK   59  A    between atoms: _152  and  _155
REMARK   60  A    between atoms: _155  and  _156
REMARK   61  A    between atoms: _161  and  _163
REMARK   62  A    between atoms: _163  and  _164
REMARK   63  A    between atoms: _163  and  _166
REMARK   64  A    between atoms: _166  and  _167
REMARK   65  A    between atoms: _173  and  _175
REMARK   66  A    between atoms: _175  and  _176
REMARK   67  A    between atoms: _175  and  _178
REMARK   68  A    between atoms: _178  and  _179
REMARK   69  A    between atoms: _185  and  _187
REMARK   70  A    between atoms: _187  and  _188
REMARK   71  A    between atoms: _187  and  _190
REMARK   72  A    between atoms: _190  and  _191
REMARK   73  A    between atoms: _191  and  _192
REMARK   74  A    between atoms: _195  and  _197
REMARK   75  A    between atoms: _197  and  _198
REMARK   76  A    between atoms: _197  and  _200
REMARK   77  A    between atoms: _200  and  _201
REMARK   78  A    between atoms: _201  and  _202
REMARK   79  A    between atoms: _202  and  _203
REMARK   80  A    between atoms: _212  and  _214
REMARK   81  A    between atoms: _214  and  _215
REMARK   82  A    between atoms: _214  and  _217
REMARK   83  A    between atoms: _217  and  _218
REMARK   84  A    between atoms: _223  and  _225
REMARK   85  A    between atoms: _225  and  _226
REMARK   86  A    between atoms: _225  and  _228
REMARK   87  A    between atoms: _228  and  _229
REMARK   88  A    between atoms: _232  and  _234
REMARK   89  A    between atoms: _234  and  _235
REMARK   90  A    between atoms: _234  and  _237
REMARK   91  A    between atoms: _237  and  _238
REMARK   92  A    between atoms: _241  and  _243
REMARK   93  A    between atoms: _243  and  _244
REMARK   94  A    between atoms: _243  and  _246
REMARK   95  A    between atoms: _246  and  _247
REMARK   96  A    between atoms: _252  and  _254
REMARK   97  A    between atoms: _254  and  _255
REMARK   98  A    between atoms: _254  and  _257
REMARK   99  A    between atoms: _257  and  _258
REMARK  100  A    between atoms: _261  and  _263
REMARK  101  A    between atoms: _263  and  _264
REMARK  102  A    between atoms: _263  and  _266
REMARK  103  A    between atoms: _266  and  _267
REMARK  104  A    between atoms: _272  and  _274
REMARK  105  A    between atoms: _274  and  _275
REMARK  106  A    between atoms: _274  and  _277
REMARK  107  A    between atoms: _277  and  _278
REMARK  108  A    between atoms: _283  and  _285
REMARK  109  A    between atoms: _285  and  _286
REMARK  110  A    between atoms: _285  and  _288
REMARK  111  A    between atoms: _288  and  _289
REMARK  112  A    between atoms: _292  and  _294
REMARK  113  A    between atoms: _294  and  _295
REMARK  114  A    between atoms: _294  and  _297
REMARK  115  A    between atoms: _300  and  _302
REMARK  116  A    between atoms: _302  and  _303
REMARK  117  A    between atoms: _302  and  _305
REMARK  118  A    between atoms: _305  and  _306
REMARK  119  A    between atoms: _309  and  _311
REMARK  120  A    between atoms: _311  and  _312
REMARK  121  A    between atoms: _311  and  _314
REMARK  122  A    between atoms: _314  and  _315
REMARK  123  A    between atoms: _315  and  _316
REMARK  124  A    between atoms: _319  and  _321
REMARK  125  A    between atoms: _321  and  _322
REMARK  126  A    between atoms: _325  and  _327
REMARK  127  A    between atoms: _327  and  _328
REMARK  128  A    between atoms: _327  and  _330
REMARK  129  A    between atoms: _330  and  _331
REMARK  130  A    between atoms: _334  and  _336
REMARK  131  A    between atoms: _336  and  _337
REMARK  132  A    between atoms: _336  and  _339
REMARK  133  A    between atoms: _339  and  _340
REMARK  134  A    between atoms: _340  and  _341
REMARK  135  A    between atoms: _344  and  _346
REMARK  136  A    between atoms: _346  and  _347
REMARK  137  A    between atoms: _346  and  _349
REMARK  138  A    between atoms: _349  and  _350
REMARK  139  A    between atoms: _355  and  _357
REMARK  140  A    between atoms: _357  and  _358
REMARK  141  A    between atoms: _360  and  _362
REMARK  142  A    between atoms: _362  and  _363
REMARK  143  A    between atoms: _362  and  _365
REMARK  144  A    between atoms: _368  and  _370
REMARK  145  A    between atoms: _370  and  _371
REMARK  146  A    between atoms: _374  and  _376
REMARK  147  A    between atoms: _376  and  _377
REMARK  148  A    between atoms: _376  and  _379
REMARK  149  A    between atoms: _379  and  _380
REMARK  150  A    between atoms: _385  and  _387
REMARK  151  A    between atoms: _387  and  _388
REMARK  152  A    between atoms: _387  and  _390
REMARK  153  A    between atoms: _390  and  _391
REMARK  154  A    between atoms: _391  and  _392
REMARK  155  A    between atoms: _392  and  _393
REMARK  156  A    between atoms: _393  and  _394
REMARK  157  A    between atoms: _398  and  _400
REMARK  158  A    between atoms: _400  and  _401
REMARK  159  A    between atoms: _400  and  _403
REMARK  160  A    between atoms: _403  and  _404
REMARK  161  A    between atoms: _407  and  _409
REMARK  162  A    between atoms: _409  and  _410
REMARK  163  A    between atoms: _409  and  _412
REMARK  164  A    between atoms: _412  and  _413
REMARK  165  A    between atoms: _418  and  _420
REMARK  166  A    between atoms: _420  and  _421
REMARK  167  A    between atoms: _423  and  _425
REMARK  168  A    between atoms: _425  and  _426
REMARK  169  A    between atoms: _425  and  _428
REMARK  170  A    between atoms: _428  and  _429
REMARK  171  A    between atoms: _429  and  _430
REMARK  172  A    between atoms: _430  and  _431
REMARK  173  A    between atoms: _431  and  _432
REMARK  174  A    between atoms: _436  and  _438
REMARK  175  A    between atoms: _438  and  _439
REMARK  176  A    between atoms: _438  and  _441
REMARK  177  A    between atoms: _441  and  _442
REMARK  178  A    between atoms: _442  and  _443
REMARK  179  A    between atoms: _443  and  _444
REMARK  180  A    between atoms: _453  and  _455
REMARK  181  A    between atoms: _455  and  _456
REMARK  182  A    between atoms: _455  and  _458
REMARK  183  A    between atoms: _458  and  _459
REMARK  184  A    between atoms: _464  and  _465
REMARK  185  A    between atoms: _467  and  _469
REMARK  186  A    between atoms: _469  and  _470
REMARK  187  A    between atoms: _469  and  _472
REMARK  188  A    between atoms: _472  and  _473
REMARK  189  A    between atoms: _473  and  _474
REMARK  190  A    between atoms: _474  and  _475
REMARK  191  A    between atoms: _475  and  _476
REMARK  192  A    between atoms: _480  and  _482
REMARK  193  A    between atoms: _482  and  _483
REMARK  194  A    between atoms: _482  and  _485
REMARK  195  A    between atoms: _485  and  _486
REMARK  196  A    between atoms: _488  and  _490
REMARK  197  A    between atoms: _490  and  _491
REMARK  198  A    between atoms: _490  and  _493
REMARK  199  A    between atoms: _493  and  _494
REMARK  200  A    between atoms: _497  and  _499
REMARK  201  A    between atoms: _499  and  _500
REMARK  202  A    between atoms: _499  and  _502
REMARK  203  A    between atoms: _502  and  _503
REMARK  204  A    between atoms: _503  and  _504
REMARK  205  A    between atoms: _507  and  _509
REMARK  206  A    between atoms: _509  and  _510
REMARK  207  A    between atoms: _513  and  _515
REMARK  208  A    between atoms: _515  and  _516
REMARK  209  A    between atoms: _515  and  _518
REMARK  210  A    between atoms: _518  and  _519
REMARK  211  A    between atoms: _521  and  _523
REMARK  212  A    between atoms: _523  and  _524
REMARK  213  A    between atoms: _526  and  _528
REMARK  214  A    between atoms: _528  and  _529
REMARK  215  A    between atoms: _528  and  _531
REMARK  216  A    between atoms: _531  and  _532
REMARK  217  A    between atoms: _535  and  _537
REMARK  218  A    between atoms: _537  and  _538
REMARK  219  A    between atoms: _540  and  _542
REMARK  220  A    between atoms: _542  and  _543
REMARK  221  A    between atoms: _542  and  _545
REMARK  222  A    between atoms: _545  and  _546
REMARK  223  A    between atoms: _551  and  _553
REMARK  224  A    between atoms: _553  and  _554
REMARK  225  A    between atoms: _553  and  _556
REMARK  226  A    between atoms: _556  and  _557
REMARK  227  A    between atoms: _557  and  _558
REMARK  228  A    between atoms: _565  and  _566
REMARK  229  A    between atoms: _566  and  _582
REMARK  230  A    between atoms: _567  and  _569
REMARK  231  A    between atoms: _569  and  _570
REMARK  232  A    between atoms: _570  and  _571
REMARK  233  A    between atoms: _575  and  _577
REMARK  234  A    between atoms: _577  and  _578
REMARK  235  A    between atoms: _577  and  _585
REMARK  236  A    between atoms: _578  and  _579
REMARK  237  A    between atoms: _579  and  _580
REMARK  238  A    between atoms: _580  and  _581
REMARK  239  A    between atoms: _581  and  _582
REMARK  240  A    between atoms: _587  and  _589
REMARK  241  A    between atoms: _589  and  _590
REMARK  242  A    between atoms: _589  and  _592
REMARK  243  A    between atoms: _592  and  _593
REMARK  244  A    between atoms: _596  and  _598
REMARK  245  A    between atoms: _598  and  _599
REMARK  246  A    between atoms: _601  and  _603
REMARK  247  A    between atoms: _603  and  _604
REMARK  248  A    between atoms: _607  and  _609
REMARK  249  A    between atoms: _609  and  _610
REMARK  250  A    between atoms: _609  and  _612
REMARK  251  A    between atoms: _612  and  _613
REMARK  252  A    between atoms: _618  and  _619
REMARK                            x       y       z     vdW  Elec       q    Type
REMARK                         _______ _______ _______ _____ _____    ______ ____
ROOT
ATOM      1  CG  TYR A   1      34.538   7.585  28.816  0.00  0.00    -0.020 A 
ATOM      2  CD2 TYR A   1      35.699   8.183  29.313  0.00  0.00    -0.001 A 
ATOM      3  CE2 TYR A   1      35.964   9.542  29.091  0.00  0.00    +0.036 A 
ATOM      4  CZ  TYR A   1      35.061  10.308  28.372  0.00  0.00    +0.134 A 
ATOM      5  CE1 TYR A   1      33.898   9.740  27.881  0.00  0.00    +0.036 A 
ATOM      6  CD1 TYR A   1      33.639   8.381  28.108  0.00  0.00    -0.001 A 
ENDROOT
BRANCH   4   7
ATOM      7  OH  TYR A   1      35.317  11.648  28.151  0.00  0.00    -0.506 OA
ATOM      8  HH  TYR A   1      35.357  11.819  27.177  0.00  0.00    +0.292 HD
ENDBRANCH   4   7
BRANCH   1   9
ATOM      9  CB  TYR A   1      34.240   6.123  29.084  0.00  0.00    +0.051 C 
BRANCH   9  10
ATOM     10  CA  TYR A   1      34.775   5.115  28.064  0.00  0.00    +0.137 C 
BRANCH  10  11
ATOM     11  N   TYR A   1      33.867   4.981  26.921  0.00  0.00    -0.239 NA
ATOM     12  H   TYR A   1      33.037   5.604  26.855  0.00  0.00    +0.142 HD
ENDBRANCH  10  11
BRANCH  10  13
ATOM     13  C   TYR A   1      34.945   3.776  28.781  0.00  0.00    +0.224 C 
ATOM     14  O   TYR A   1      36.058   3.385  29.120  0.00  0.00    -0.287 OA
ENDBRANCH  10  13
ENDBRANCH   9  10
ENDBRANCH   1   9
TORSDOF 5
REMARK  Name = ../refined-set-2016/2qrh/2qrh_pocket.pdb
REMARK  252 active torsions:
REMARK  status: ('A' for Active; 'I' for Inactive)
REMARK    1  A    between atoms: _1  and  _3
REMARK    2  A    between atoms: _3  and  _4
REMARK    3  A    between atoms: _3  and  _6
REMARK    4  A    between atoms: _6  and  _7
REMARK    5  A    between atoms: _12  and  _13
REMARK    6  A    between atoms: _15  and  _17
REMARK    7  A    between atoms: _17  and  _18
REMARK    8  A    between atoms: _17  and  _20
REMARK    9  A    between atoms: _20  and  _21
REMARK   10  A    between atoms: _21  and  _22
REMARK   11  A    between atoms: _25  and  _27
REMARK   12  A    between atoms: _27  and  _28
REMARK   13  A    between atoms: _30  and  _32
REMARK   14  A    between atoms: _32  and  _33
REMARK   15  A    between atoms: _32  and  _35
REMARK   16  A    between atoms: _35  and  _36
REMARK   17  A    between atoms: _41  and  _43
REMARK   18  A    between atoms: _43  and  _44
REMARK   19  A    between atoms: _46  and  _48
REMARK   20  A    between atoms: _48  and  _49
REMARK   21  A    between atoms: _51  and  _53
REMARK   22  A    between atoms: _53  and  _54
REMARK   23  A    between atoms: _53  and  _56
REMARK   24  A    between atoms: _56  and  _57
REMARK   25  A    between atoms: _60  and  _62
REMARK   26  A    between atoms: _62  and  _63
REMARK   27  A    between atoms: _65  and  _67
REMARK   28  A    between atoms: _67  and  _68
REMARK   29  A    between atoms: _67  and  _70
REMARK   30  A    between atoms: _70  and  _71
REMARK   31  A    between atoms: _71  and  _72
REMARK   32  A    between atoms: _72  and  _73
REMARK   33  A    between atoms: _82  and  _84
REMARK   34  A    between atoms: _84  and  _85
REMARK   35  A    between atoms: _84  and  _87
REMARK   36  A    between atoms: _87  and  _88
REMARK   37  A    between atoms: _91  and  _93
REMARK   38  A    between atoms: _93  and  _94
REMARK   39  A    between atoms: _97  and  _99
REMARK   40  A    between atoms: _99  and  _100
REMARK   41  A    between atoms: _99  and  _102
REMARK   42  A    between atoms: _102  and  _103
REMARK   43  A    between atoms: _109  and  _111
REMARK   44  A    between atoms: _111  and  _112
REMARK   45  A    between atoms: _111  and  _114
REMARK   46  A    between atoms: _114  and  _115
REMARK   47  A    between atoms: _120  and  _121
REMARK   48  A    between atoms: _124  and  _125
REMARK   49  A    between atoms: _130  and  _132
REMARK   50  A    between atoms: _132  and  _133
REMARK   51  A    between atoms: _132  and  _135
REMARK   52  A    between atoms: _135  and  _136
REMARK   53  A    between atoms: _141  and  _143
REMARK   54  A    between atoms: _143  and  _144
REMARK   55  A    between atoms: _143  and  _146
REMARK   56  A    between atoms: _146  and  _147
REMARK   57  A    between atoms: _150  and  _152
REMARK   58  A    between atoms: _152  and  _153
REMARK   59  A    between atoms: _152  and  _155
REMARK   60  A    between atoms: _155  and  _156
REMARK   61  A    between atoms: _161  and  _163
REMARK   62  A    between atoms: _163  and  _164
REMARK   63  A    between atoms: _163  and  _166
REMARK   64  A    between atoms: _166  and  _167
REMARK   65  A    between atoms: _173  and  _175
REMARK   66  A    between atoms: _175  and  _176
REMARK   67  A    between atoms: _175  and  _178
REMARK   68  A    between atoms: _178  and  _179
REMARK   69  A    between atoms: _185  and  _187
REMARK   70  A    between atoms: _187  and  _188
REMARK   71  A    between atoms: _187  and  _190
REMARK   72  A    between atoms: _190  and  _191
REMARK   73  A    between atoms: _191  and  _192
REMARK   74  A    between atoms: _195  and  _197
REMARK   75  A    between atoms: _197  and  _198
REMARK   76  A    between atoms: _197  and  _200
REMARK   77  A    between atoms: _200  and  _201
REMARK   78  A    between atoms: _201  and  _202
REMARK   79  A    between atoms: _202  and  _203
REMARK   80  A    between atoms: _212  and  _214
REMARK   81  A    between atoms: _214  and  _215
REMARK   82  A    between atoms: _214  and  _217
REMARK   83  A    between atoms: _217  and  _218
REMARK   84  A    between atoms: _223  and  _225
REMARK   85  A    between atoms: _225  and  _226
REMARK   86  A    between atoms: _225  and  _228
REMARK   87  A    between atoms: _228  and  _229
REMARK   88  A    between atoms: _232  and  _234
REMARK   89  A    between atoms: _234  and  _235
REMARK   90  A    between atoms: _234  and  _237
REMARK   91  A    between atoms: _237  and  _238
REMARK   92  A    between atoms: _241  and  _243
REMARK   93  A    between atoms: _243  and  _244
REMARK   94  A    between atoms: _243  and  _246
REMARK   95  A    between atoms: _246  and  _247
REMARK   96  A    between atoms: _252  and  _254
REMARK   97  A    between atoms: _254  and  _255
REMARK   98  A    between atoms: _254  and  _257
REMARK   99  A    between atoms: _257  and  _258
REMARK  100  A    between atoms: _261  and  _263
REMARK  101  A    between atoms: _263  and  _264
REMARK  102  A    between atoms: _263  and  _266
REMARK  103  A    between atoms: _266  and  _267
REMARK  104  A    between atoms: _272  and  _274
REMARK  105  A    between atoms: _274  and  _275
REMARK  106  A    between atoms: _274  and  _277
REMARK  107  A    between atoms: _277  and  _278
REMARK  108  A    between atoms: _283  and  _285
REMARK  109  A    between atoms: _285  and  _286
REMARK  110  A    between atoms: _285  and  _288
REMARK  111  A    between atoms: _288  and  _289
REMARK  112  A    between atoms: _292  and  _294
REMARK  113  A    between atoms: _294  and  _295
REMARK  114  A    between atoms: _294  and  _297
REMARK  115  A    between atoms: _300  and  _302
REMARK  116  A    between atoms: _302  and  _303
REMARK  117  A    between atoms: _302  and  _305
REMARK  118  A    between atoms: _305  and  _306
REMARK  119  A    between atoms: _309  and  _311
REMARK  120  A    between atoms: _311  and  _312
REMARK  121  A    between atoms: _311  and  _314
REMARK  122  A    between atoms: _314  and  _315
REMARK  123  A    between atoms: _315  and  _316
REMARK  124  A    between atoms: _319  and  _321
REMARK  125  A    between atoms: _321  and  _322
REMARK  126  A    between atoms: _325  and  _327
REMARK  127  A    between atoms: _327  and  _328
REMARK  128  A    between atoms: _327  and  _330
REMARK  129  A    between atoms: _330  and  _331
REMARK  130  A    between atoms: _334  and  _336
REMARK  131  A    between atoms: _336  and  _337
REMARK  132  A    between atoms: _336  and  _339
REMARK  133  A    between atoms: _339  and  _340
REMARK  134  A    between atoms: _340  and  _341
REMARK  135  A    between atoms: _344  and  _346
REMARK  136  A    between atoms: _346  and  _347
REMARK  137  A    between atoms: _346  and  _349
REMARK  138  A    between atoms: _349  and  _350
REMARK  139  A    between atoms: _355  and  _357
REMARK  140  A    between atoms: _357  and  _358
REMARK  141  A    between atoms: _360  and  _362
REMARK  142  A    between atoms: _362  and  _363
REMARK  143  A    between atoms: _362  and  _365
REMARK  144  A    between atoms: _368  and  _370
REMARK  145  A    between atoms: _370  and  _371
REMARK  146  A    between atoms: _374  and  _376
REMARK  147  A    between atoms: _376  and  _377
REMARK  148  A    between atoms: _376  and  _379
REMARK  149  A    between atoms: _379  and  _380
REMARK  150  A    between atoms: _385  and  _387
REMARK  151  A    between atoms: _387  and  _388
REMARK  152  A    between atoms: _387  and  _390
REMARK  153  A    between atoms: _390  and  _391
REMARK  154  A    between atoms: _391  and  _392
REMARK  155  A    between atoms: _392  and  _393
REMARK  156  A    between atoms: _393  and  _394
REMARK  157  A    between atoms: _398  and  _400
REMARK  158  A    between atoms: _400  and  _401
REMARK  159  A    between atoms: _400  and  _403
REMARK  160  A    between atoms: _403  and  _404
REMARK  161  A    between atoms: _407  and  _409
REMARK  162  A    between atoms: _409  and  _410
REMARK  163  A    between atoms: _409  and  _412
REMARK  164  A    between atoms: _412  and  _413
REMARK  165  A    between atoms: _418  and  _420
REMARK  166  A    between atoms: _420  and  _421
REMARK  167  A    between atoms: _423  and  _425
REMARK  168  A    between atoms: _425  and  _426
REMARK  169  A    between atoms: _425  and  _428
REMARK  170  A    between atoms: _428  and  _429
REMARK  171  A    between atoms: _429  and  _430
REMARK  172  A    between atoms: _430  and  _431
REMARK  173  A    between atoms: _431  and  _432
REMARK  174  A    between atoms: _436  and  _438
REMARK  175  A    between atoms: _438  and  _439
REMARK  176  A    between atoms: _438  and  _441
REMARK  177  A    between atoms: _441  and  _442
REMARK  178  A    between atoms: _442  and  _443
REMARK  179  A    between atoms: _443  and  _444
REMARK  180  A    between atoms: _453  and  _455
REMARK  181  A    between atoms: _455  and  _456
REMARK  182  A    between atoms: _455  and  _458
REMARK  183  A    between atoms: _458  and  _459
REMARK  184  A    between atoms: _464  and  _465
REMARK  185  A    between atoms: _467  and  _469
REMARK  186  A    between atoms: _469  and  _470
REMARK  187  A    between atoms: _469  and  _472
REMARK  188  A    between atoms: _472  and  _473
REMARK  189  A    between atoms: _473  and  _474
REMARK  190  A    between atoms: _474  and  _475
REMARK  191  A    between atoms: _475  and  _476
REMARK  192  A    between atoms: _480  and  _482
REMARK  193  A    between atoms: _482  and  _483
REMARK  194  A    between atoms: _482  and  _485
REMARK  195  A    between atoms: _485  and  _486
REMARK  196  A    between atoms: _488  and  _490
REMARK  197  A    between atoms: _490  and  _491
REMARK  198  A    between atoms: _490  and  _493
REMARK  199  A    between atoms: _493  and  _494
REMARK  200  A    between atoms: _497  and  _499
REMARK  201  A    between atoms: _499  and  _500
REMARK  202  A    between atoms: _499  and  _502
REMARK  203  A    between atoms: _502  and  _503
REMARK  204  A    between atoms: _503  and  _504
REMARK  205  A    between atoms: _507  and  _509
REMARK  206  A    between atoms: _509  and  _510
REMARK  207  A    between atoms: _513  and  _515
REMARK  208  A    between atoms: _515  and  _516
REMARK  209  A    between atoms: _515  and  _518
REMARK  210  A    between atoms: _518  and  _519
REMARK  211  A    between atoms: _521  and  _523
REMARK  212  A    between atoms: _523  and  _524
REMARK  213  A    between atoms: _526  and  _528
REMARK  214  A    between atoms: _528  and  _529
REMARK  215  A    between atoms: _528  and  _531
REMARK  216  A    between atoms: _531  and  _532
REMARK  217  A    between atoms: _535  and  _537
REMARK  218  A    between atoms: _537  and  _538
REMARK  219  A    between atoms: _540  and  _542
REMARK  220  A    between atoms: _542  and  _543
REMARK  221  A    between atoms: _542  and  _545
REMARK  222  A    between atoms: _545  and  _546
REMARK  223  A    between atoms: _551  and  _553
REMARK  224  A    between atoms: _553  and  _554
REMARK  225  A    between atoms: _553  and  _556
REMARK  226  A    between atoms: _556  and  _557
REMARK  227  A    between atoms: _557  and  _558
REMARK  228  A    between atoms: _565  and  _566
REMARK  229  A    between atoms: _566  and  _582
REMARK  230  A    between atoms: _567  and  _569
REMARK  231  A    between atoms: _569  and  _570
REMARK  232  A    between atoms: _570  and  _571
REMARK  233  A    between atoms: _575  and  _577
REMARK  234  A    between atoms: _577  and  _578
REMARK  235  A    between atoms: _577  and  _585
REMARK  236  A    between atoms: _578  and  _579
REMARK  237  A    between atoms: _579  and  _580
REMARK  238  A    between atoms: _580  and  _581
REMARK  239  A    between atoms: _581  and  _582
REMARK  240  A    between atoms: _587  and  _589
REMARK  241  A    between atoms: _589  and  _590
REMARK  242  A    between atoms: _589  and  _592
REMARK  243  A    between atoms: _592  and  _593
REMARK  244  A    between atoms: _596  and  _598
REMARK  245  A    between atoms: _598  and  _599
REMARK  246  A    between atoms: _601  and  _603
REMARK  247  A    between atoms: _603  and  _604
REMARK  248  A    between atoms: _607  and  _609
REMARK  249  A    between atoms: _609  and  _610
REMARK  250  A    between atoms: _609  and  _612
REMARK  251  A    between atoms: _612  and  _613
REMARK  252  A    between atoms: _618  and  _619
REMARK                            x       y       z     vdW  Elec       q    Type
REMARK                         _______ _______ _______ _____ _____    ______ ____
ROOT
ATOM      1  O   HOH     1      33.635  12.690  26.339  0.00  0.00    +0.000 OA
ENDROOT
TORSDOF 0
REMARK  Name = ../refined-set-2016/2qrh/2qrh_pocket.pdb
REMARK  252 active torsions:
REMARK  status: ('A' for Active; 'I' for Inactive)
REMARK    1  A    between atoms: _1  and  _3
REMARK    2  A    between atoms: _3  and  _4
REMARK    3  A    between atoms: _3  and  _6
REMARK    4  A    between atoms: _6  and  _7
REMARK    5  A    between atoms: _12  and  _13
REMARK    6  A    between atoms: _15  and  _17
REMARK    7  A    between atoms: _17  and  _18
REMARK    8  A    between atoms: _17  and  _20
REMARK    9  A    between atoms: _20  and  _21
REMARK   10  A    between atoms: _21  and  _22
REMARK   11  A    between atoms: _25  and  _27
REMARK   12  A    between atoms: _27  and  _28
REMARK   13  A    between atoms: _30  and  _32
REMARK   14  A    between atoms: _32  and  _33
REMARK   15  A    between atoms: _32  and  _35
REMARK   16  A    between atoms: _35  and  _36
REMARK   17  A    between atoms: _41  and  _43
REMARK   18  A    between atoms: _43  and  _44
REMARK   19  A    between atoms: _46  and  _48
REMARK   20  A    between atoms: _48  and  _49
REMARK   21  A    between atoms: _51  and  _53
REMARK   22  A    between atoms: _53  and  _54
REMARK   23  A    between atoms: _53  and  _56
REMARK   24  A    between atoms: _56  and  _57
REMARK   25  A    between atoms: _60  and  _62
REMARK   26  A    between atoms: _62  and  _63
REMARK   27  A    between atoms: _65  and  _67
REMARK   28  A    between atoms: _67  and  _68
REMARK   29  A    between atoms: _67  and  _70
REMARK   30  A    between atoms: _70  and  _71
REMARK   31  A    between atoms: _71  and  _72
REMARK   32  A    between atoms: _72  and  _73
REMARK   33  A    between atoms: _82  and  _84
REMARK   34  A    between atoms: _84  and  _85
REMARK   35  A    between atoms: _84  and  _87
REMARK   36  A    between atoms: _87  and  _88
REMARK   37  A    between atoms: _91  and  _93
REMARK   38  A    between atoms: _93  and  _94
REMARK   39  A    between atoms: _97  and  _99
REMARK   40  A    between atoms: _99  and  _100
REMARK   41  A    between atoms: _99  and  _102
REMARK   42  A    between atoms: _102  and  _103
REMARK   43  A    between atoms: _109  and  _111
REMARK   44  A    between atoms: _111  and  _112
REMARK   45  A    between atoms: _111  and  _114
REMARK   46  A    between atoms: _114  and  _115
REMARK   47  A    between atoms: _120  and  _121
REMARK   48  A    between atoms: _124  and  _125
REMARK   49  A    between atoms: _130  and  _132
REMARK   50  A    between atoms: _132  and  _133
REMARK   51  A    between atoms: _132  and  _135
REMARK   52  A    between atoms: _135  and  _136
REMARK   53  A    between atoms: _141  and  _143
REMARK   54  A    between atoms: _143  and  _144
REMARK   55  A    between atoms: _143  and  _146
REMARK   56  A    between atoms: _146  and  _147
REMARK   57  A    between atoms: _150  and  _152
REMARK   58  A    between atoms: _152  and  _153
REMARK   59  A    between atoms: _152  and  _155
REMARK   60  A    between atoms: _155  and  _156
REMARK   61  A    between atoms: _161  and  _163
REMARK   62  A    between atoms: _163  and  _164
REMARK   63  A    between atoms: _163  and  _166
REMARK   64  A    between atoms: _166  and  _167
REMARK   65  A    between atoms: _173  and  _175
REMARK   66  A    between atoms: _175  and  _176
REMARK   67  A    between atoms: _175  and  _178
REMARK   68  A    between atoms: _178  and  _179
REMARK   69  A    between atoms: _185  and  _187
REMARK   70  A    between atoms: _187  and  _188
REMARK   71  A    between atoms: _187  and  _190
REMARK   72  A    between atoms: _190  and  _191
REMARK   73  A    between atoms: _191  and  _192
REMARK   74  A    between atoms: _195  and  _197
REMARK   75  A    between atoms: _197  and  _198
REMARK   76  A    between atoms: _197  and  _200
REMARK   77  A    between atoms: _200  and  _201
REMARK   78  A    between atoms: _201  and  _202
REMARK   79  A    between atoms: _202  and  _203
REMARK   80  A    between atoms: _212  and  _214
REMARK   81  A    between atoms: _214  and  _215
REMARK   82  A    between atoms: _214  and  _217
REMARK   83  A    between atoms: _217  and  _218
REMARK   84  A    between atoms: _223  and  _225
REMARK   85  A    between atoms: _225  and  _226
REMARK   86  A    between atoms: _225  and  _228
REMARK   87  A    between atoms: _228  and  _229
REMARK   88  A    between atoms: _232  and  _234
REMARK   89  A    between atoms: _234  and  _235
REMARK   90  A    between atoms: _234  and  _237
REMARK   91  A    between atoms: _237  and  _238
REMARK   92  A    between atoms: _241  and  _243
REMARK   93  A    between atoms: _243  and  _244
REMARK   94  A    between atoms: _243  and  _246
REMARK   95  A    between atoms: _246  and  _247
REMARK   96  A    between atoms: _252  and  _254
REMARK   97  A    between atoms: _254  and  _255
REMARK   98  A    between atoms: _254  and  _257
REMARK   99  A    between atoms: _257  and  _258
REMARK  100  A    between atoms: _261  and  _263
REMARK  101  A    between atoms: _263  and  _264
REMARK  102  A    between atoms: _263  and  _266
REMARK  103  A    between atoms: _266  and  _267
REMARK  104  A    between atoms: _272  and  _274
REMARK  105  A    between atoms: _274  and  _275
REMARK  106  A    between atoms: _274  and  _277
REMARK  107  A    between atoms: _277  and  _278
REMARK  108  A    between atoms: _283  and  _285
REMARK  109  A    between atoms: _285  and  _286
REMARK  110  A    between atoms: _285  and  _288
REMARK  111  A    between atoms: _288  and  _289
REMARK  112  A    between atoms: _292  and  _294
REMARK  113  A    between atoms: _294  and  _295
REMARK  114  A    between atoms: _294  and  _297
REMARK  115  A    between atoms: _300  and  _302
REMARK  116  A    between atoms: _302  and  _303
REMARK  117  A    between atoms: _302  and  _305
REMARK  118  A    between atoms: _305  and  _306
REMARK  119  A    between atoms: _309  and  _311
REMARK  120  A    between atoms: _311  and  _312
REMARK  121  A    between atoms: _311  and  _314
REMARK  122  A    between atoms: _314  and  _315
REMARK  123  A    between atoms: _315  and  _316
REMARK  124  A    between atoms: _319  and  _321
REMARK  125  A    between atoms: _321  and  _322
REMARK  126  A    between atoms: _325  and  _327
REMARK  127  A    between atoms: _327  and  _328
REMARK  128  A    between atoms: _327  and  _330
REMARK  129  A    between atoms: _330  and  _331
REMARK  130  A    between atoms: _334  and  _336
REMARK  131  A    between atoms: _336  and  _337
REMARK  132  A    between atoms: _336  and  _339
REMARK  133  A    between atoms: _339  and  _340
REMARK  134  A    between atoms: _340  and  _341
REMARK  135  A    between atoms: _344  and  _346
REMARK  136  A    between atoms: _346  and  _347
REMARK  137  A    between atoms: _346  and  _349
REMARK  138  A    between atoms: _349  and  _350
REMARK  139  A    between atoms: _355  and  _357
REMARK  140  A    between atoms: _357  and  _358
REMARK  141  A    between atoms: _360  and  _362
REMARK  142  A    between atoms: _362  and  _363
REMARK  143  A    between atoms: _362  and  _365
REMARK  144  A    between atoms: _368  and  _370
REMARK  145  A    between atoms: _370  and  _371
REMARK  146  A    between atoms: _374  and  _376
REMARK  147  A    between atoms: _376  and  _377
REMARK  148  A    between atoms: _376  and  _379
REMARK  149  A    between atoms: _379  and  _380
REMARK  150  A    between atoms: _385  and  _387
REMARK  151  A    between atoms: _387  and  _388
REMARK  152  A    between atoms: _387  and  _390
REMARK  153  A    between atoms: _390  and  _391
REMARK  154  A    between atoms: _391  and  _392
REMARK  155  A    between atoms: _392  and  _393
REMARK  156  A    between atoms: _393  and  _394
REMARK  157  A    between atoms: _398  and  _400
REMARK  158  A    between atoms: _400  and  _401
REMARK  159  A    between atoms: _400  and  _403
REMARK  160  A    between atoms: _403  and  _404
REMARK  161  A    between atoms: _407  and  _409
REMARK  162  A    between atoms: _409  and  _410
REMARK  163  A    between atoms: _409  and  _412
REMARK  164  A    between atoms: _412  and  _413
REMARK  165  A    between atoms: _418  and  _420
REMARK  166  A    between atoms: _420  and  _421
REMARK  167  A    between atoms: _423  and  _425
REMARK  168  A    between atoms: _425  and  _426
REMARK  169  A    between atoms: _425  and  _428
REMARK  170  A    between atoms: _428  and  _429
REMARK  171  A    between atoms: _429  and  _430
REMARK  172  A    between atoms: _430  and  _431
REMARK  173  A    between atoms: _431  and  _432
REMARK  174  A    between atoms: _436  and  _438
REMARK  175  A    between atoms: _438  and  _439
REMARK  176  A    between atoms: _438  and  _441
REMARK  177  A    between atoms: _441  and  _442
REMARK  178  A    between atoms: _442  and  _443
REMARK  179  A    between atoms: _443  and  _444
REMARK  180  A    between atoms: _453  and  _455
REMARK  181  A    between atoms: _455  and  _456
REMARK  182  A    between atoms: _455  and  _458
REMARK  183  A    between atoms: _458  and  _459
REMARK  184  A    between atoms: _464  and  _465
REMARK  185  A    between atoms: _467  and  _469
REMARK  186  A    between atoms: _469  and  _470
REMARK  187  A    between atoms: _469  and  _472
REMARK  188  A    between atoms: _472  and  _473
REMARK  189  A    between atoms: _473  and  _474
REMARK  190  A    between atoms: _474  and  _475
REMARK  191  A    between atoms: _475  and  _476
REMARK  192  A    between atoms: _480  and  _482
REMARK  193  A    between atoms: _482  and  _483
REMARK  194  A    between atoms: _482  and  _485
REMARK  195  A    between atoms: _485  and  _486
REMARK  196  A    between atoms: _488  and  _490
REMARK  197  A    between atoms: _490  and  _491
REMARK  198  A    between atoms: _490  and  _493
REMARK  199  A    between atoms: _493  and  _494
REMARK  200  A    between atoms: _497  and  _499
REMARK  201  A    between atoms: _499  and  _500
REMARK  202  A    between atoms: _499  and  _502
REMARK  203  A    between atoms: _502  and  _503
REMARK  204  A    between atoms: _503  and  _504
REMARK  205  A    between atoms: _507  and  _509
REMARK  206  A    between atoms: _509  and  _510
REMARK  207  A    between atoms: _513  and  _515
REMARK  208  A    between atoms: _515  and  _516
REMARK  209  A    between atoms: _515  and  _518
REMARK  210  A    between atoms: _518  and  _519
REMARK  211  A    between atoms: _521  and  _523
REMARK  212  A    between atoms: _523  and  _524
REMARK  213  A    between atoms: _526  and  _528
REMARK  214  A    between atoms: _528  and  _529
REMARK  215  A    between atoms: _528  and  _531
REMARK  216  A    between atoms: _531  and  _532
REMARK  217  A    between atoms: _535  and  _537
REMARK  218  A    between atoms: _537  and  _538
REMARK  219  A    between atoms: _540  and  _542
REMARK  220  A    between atoms: _542  and  _543
REMARK  221  A    between atoms: _542  and  _545
REMARK  222  A    between atoms: _545  and  _546
REMARK  223  A    between atoms: _551  and  _553
REMARK  224  A    between atoms: _553  and  _554
REMARK  225  A    between atoms: _553  and  _556
REMARK  226  A    between atoms: _556  and  _557
REMARK  227  A    between atoms: _557  and  _558
REMARK  228  A    between atoms: _565  and  _566
REMARK  229  A    between atoms: _566  and  _582
REMARK  230  A    between atoms: _567  and  _569
REMARK  231  A    between atoms: _569  and  _570
REMARK  232  A    between atoms: _570  and  _571
REMARK  233  A    between atoms: _575  and  _577
REMARK  234  A    between atoms: _577  and  _578
REMARK  235  A    between atoms: _577  and  _585
REMARK  236  A    between atoms: _578  and  _579
REMARK  237  A    between atoms: _579  and  _580
REMARK  238  A    between atoms: _580  and  _581
REMARK  239  A    between atoms: _581  and  _582
REMARK  240  A    between atoms: _587  and  _589
REMARK  241  A    between atoms: _589  and  _590
REMARK  242  A    between atoms: _589  and  _592
REMARK  243  A    between atoms: _592  and  _593
REMARK  244  A    between atoms: _596  and  _598
REMARK  245  A    between atoms: _598  and  _599
REMARK  246  A    between atoms: _601  and  _603
REMARK  247  A    between atoms: _603  and  _604
REMARK  248  A    between atoms: _607  and  _609
REMARK  249  A    between atoms: _609  and  _610
REMARK  250  A    between atoms: _609  and  _612
REMARK  251  A    between atoms: _612  and  _613
REMARK  252  A    between atoms: _618  and  _619
REMARK                            x       y       z     vdW  Elec       q    Type
REMARK                         _______ _______ _______ _____ _____    ______ ____
ROOT
ATOM      1  O   HOH     1      28.992  27.477  20.693  0.00  0.00    +0.000 OA
ENDROOT
TORSDOF 0
REMARK  Name = ../refined-set-2016/2qrh/2qrh_pocket.pdb
REMARK  252 active torsions:
REMARK  status: ('A' for Active; 'I' for Inactive)
REMARK    1  A    between atoms: _1  and  _3
REMARK    2  A    between atoms: _3  and  _4
REMARK    3  A    between atoms: _3  and  _6
REMARK    4  A    between atoms: _6  and  _7
REMARK    5  A    between atoms: _12  and  _13
REMARK    6  A    between atoms: _15  and  _17
REMARK    7  A    between atoms: _17  and  _18
REMARK    8  A    between atoms: _17  and  _20
REMARK    9  A    between atoms: _20  and  _21
REMARK   10  A    between atoms: _21  and  _22
REMARK   11  A    between atoms: _25  and  _27
REMARK   12  A    between atoms: _27  and  _28
REMARK   13  A    between atoms: _30  and  _32
REMARK   14  A    between atoms: _32  and  _33
REMARK   15  A    between atoms: _32  and  _35
REMARK   16  A    between atoms: _35  and  _36
REMARK   17  A    between atoms: _41  and  _43
REMARK   18  A    between atoms: _43  and  _44
REMARK   19  A    between atoms: _46  and  _48
REMARK   20  A    between atoms: _48  and  _49
REMARK   21  A    between atoms: _51  and  _53
REMARK   22  A    between atoms: _53  and  _54
REMARK   23  A    between atoms: _53  and  _56
REMARK   24  A    between atoms: _56  and  _57
REMARK   25  A    between atoms: _60  and  _62
REMARK   26  A    between atoms: _62  and  _63
REMARK   27  A    between atoms: _65  and  _67
REMARK   28  A    between atoms: _67  and  _68
REMARK   29  A    between atoms: _67  and  _70
REMARK   30  A    between atoms: _70  and  _71
REMARK   31  A    between atoms: _71  and  _72
REMARK   32  A    between atoms: _72  and  _73
REMARK   33  A    between atoms: _82  and  _84
REMARK   34  A    between atoms: _84  and  _85
REMARK   35  A    between atoms: _84  and  _87
REMARK   36  A    between atoms: _87  and  _88
REMARK   37  A    between atoms: _91  and  _93
REMARK   38  A    between atoms: _93  and  _94
REMARK   39  A    between atoms: _97  and  _99
REMARK   40  A    between atoms: _99  and  _100
REMARK   41  A    between atoms: _99  and  _102
REMARK   42  A    between atoms: _102  and  _103
REMARK   43  A    between atoms: _109  and  _111
REMARK   44  A    between atoms: _111  and  _112
REMARK   45  A    between atoms: _111  and  _114
REMARK   46  A    between atoms: _114  and  _115
REMARK   47  A    between atoms: _120  and  _121
REMARK   48  A    between atoms: _124  and  _125
REMARK   49  A    between atoms: _130  and  _132
REMARK   50  A    between atoms: _132  and  _133
REMARK   51  A    between atoms: _132  and  _135
REMARK   52  A    between atoms: _135  and  _136
REMARK   53  A    between atoms: _141  and  _143
REMARK   54  A    between atoms: _143  and  _144
REMARK   55  A    between atoms: _143  and  _146
REMARK   56  A    between atoms: _146  and  _147
REMARK   57  A    between atoms: _150  and  _152
REMARK   58  A    between atoms: _152  and  _153
REMARK   59  A    between atoms: _152  and  _155
REMARK   60  A    between atoms: _155  and  _156
REMARK   61  A    between atoms: _161  and  _163
REMARK   62  A    between atoms: _163  and  _164
REMARK   63  A    between atoms: _163  and  _166
REMARK   64  A    between atoms: _166  and  _167
REMARK   65  A    between atoms: _173  and  _175
REMARK   66  A    between atoms: _175  and  _176
REMARK   67  A    between atoms: _175  and  _178
REMARK   68  A    between atoms: _178  and  _179
REMARK   69  A    between atoms: _185  and  _187
REMARK   70  A    between atoms: _187  and  _188
REMARK   71  A    between atoms: _187  and  _190
REMARK   72  A    between atoms: _190  and  _191
REMARK   73  A    between atoms: _191  and  _192
REMARK   74  A    between atoms: _195  and  _197
REMARK   75  A    between atoms: _197  and  _198
REMARK   76  A    between atoms: _197  and  _200
REMARK   77  A    between atoms: _200  and  _201
REMARK   78  A    between atoms: _201  and  _202
REMARK   79  A    between atoms: _202  and  _203
REMARK   80  A    between atoms: _212  and  _214
REMARK   81  A    between atoms: _214  and  _215
REMARK   82  A    between atoms: _214  and  _217
REMARK   83  A    between atoms: _217  and  _218
REMARK   84  A    between atoms: _223  and  _225
REMARK   85  A    between atoms: _225  and  _226
REMARK   86  A    between atoms: _225  and  _228
REMARK   87  A    between atoms: _228  and  _229
REMARK   88  A    between atoms: _232  and  _234
REMARK   89  A    between atoms: _234  and  _235
REMARK   90  A    between atoms: _234  and  _237
REMARK   91  A    between atoms: _237  and  _238
REMARK   92  A    between atoms: _241  and  _243
REMARK   93  A    between atoms: _243  and  _244
REMARK   94  A    between atoms: _243  and  _246
REMARK   95  A    between atoms: _246  and  _247
REMARK   96  A    between atoms: _252  and  _254
REMARK   97  A    between atoms: _254  and  _255
REMARK   98  A    between atoms: _254  and  _257
REMARK   99  A    between atoms: _257  and  _258
REMARK  100  A    between atoms: _261  and  _263
REMARK  101  A    between atoms: _263  and  _264
REMARK  102  A    between atoms: _263  and  _266
REMARK  103  A    between atoms: _266  and  _267
REMARK  104  A    between atoms: _272  and  _274
REMARK  105  A    between atoms: _274  and  _275
REMARK  106  A    between atoms: _274  and  _277
REMARK  107  A    between atoms: _277  and  _278
REMARK  108  A    between atoms: _283  and  _285
REMARK  109  A    between atoms: _285  and  _286
REMARK  110  A    between atoms: _285  and  _288
REMARK  111  A    between atoms: _288  and  _289
REMARK  112  A    between atoms: _292  and  _294
REMARK  113  A    between atoms: _294  and  _295
REMARK  114  A    between atoms: _294  and  _297
REMARK  115  A    between atoms: _300  and  _302
REMARK  116  A    between atoms: _302  and  _303
REMARK  117  A    between atoms: _302  and  _305
REMARK  118  A    between atoms: _305  and  _306
REMARK  119  A    between atoms: _309  and  _311
REMARK  120  A    between atoms: _311  and  _312
REMARK  121  A    between atoms: _311  and  _314
REMARK  122  A    between atoms: _314  and  _315
REMARK  123  A    between atoms: _315  and  _316
REMARK  124  A    between atoms: _319  and  _321
REMARK  125  A    between atoms: _321  and  _322
REMARK  126  A    between atoms: _325  and  _327
REMARK  127  A    between atoms: _327  and  _328
REMARK  128  A    between atoms: _327  and  _330
REMARK  129  A    between atoms: _330  and  _331
REMARK  130  A    between atoms: _334  and  _336
REMARK  131  A    between atoms: _336  and  _337
REMARK  132  A    between atoms: _336  and  _339
REMARK  133  A    between atoms: _339  and  _340
REMARK  134  A    between atoms: _340  and  _341
REMARK  135  A    between atoms: _344  and  _346
REMARK  136  A    between atoms: _346  and  _347
REMARK  137  A    between atoms: _346  and  _349
REMARK  138  A    between atoms: _349  and  _350
REMARK  139  A    between atoms: _355  and  _357
REMARK  140  A    between atoms: _357  and  _358
REMARK  141  A    between atoms: _360  and  _362
REMARK  142  A    between atoms: _362  and  _363
REMARK  143  A    between atoms: _362  and  _365
REMARK  144  A    between atoms: _368  and  _370
REMARK  145  A    between atoms: _370  and  _371
REMARK  146  A    between atoms: _374  and  _376
REMARK  147  A    between atoms: _376  and  _377
REMARK  148  A    between atoms: _376  and  _379
REMARK  149  A    between atoms: _379  and  _380
REMARK  150  A    between atoms: _385  and  _387
REMARK  151  A    between atoms: _387  and  _388
REMARK  152  A    between atoms: _387  and  _390
REMARK  153  A    between atoms: _390  and  _391
REMARK  154  A    between atoms: _391  and  _392
REMARK  155  A    between atoms: _392  and  _393
REMARK  156  A    between atoms: _393  and  _394
REMARK  157  A    between atoms: _398  and  _400
REMARK  158  A    between atoms: _400  and  _401
REMARK  159  A    between atoms: _400  and  _403
REMARK  160  A    between atoms: _403  and  _404
REMARK  161  A    between atoms: _407  and  _409
REMARK  162  A    between atoms: _409  and  _410
REMARK  163  A    between atoms: _409  and  _412
REMARK  164  A    between atoms: _412  and  _413
REMARK  165  A    between atoms: _418  and  _420
REMARK  166  A    between atoms: _420  and  _421
REMARK  167  A    between atoms: _423  and  _425
REMARK  168  A    between atoms: _425  and  _426
REMARK  169  A    between atoms: _425  and  _428
REMARK  170  A    between atoms: _428  and  _429
REMARK  171  A    between atoms: _429  and  _430
REMARK  172  A    between atoms: _430  and  _431
REMARK  173  A    between atoms: _431  and  _432
REMARK  174  A    between atoms: _436  and  _438
REMARK  175  A    between atoms: _438  and  _439
REMARK  176  A    between atoms: _438  and  _441
REMARK  177  A    between atoms: _441  and  _442
REMARK  178  A    between atoms: _442  and  _443
REMARK  179  A    between atoms: _443  and  _444
REMARK  180  A    between atoms: _453  and  _455
REMARK  181  A    between atoms: _455  and  _456
REMARK  182  A    between atoms: _455  and  _458
REMARK  183  A    between atoms: _458  and  _459
REMARK  184  A    between atoms: _464  and  _465
REMARK  185  A    between atoms: _467  and  _469
REMARK  186  A    between atoms: _469  and  _470
REMARK  187  A    between atoms: _469  and  _472
REMARK  188  A    between atoms: _472  and  _473
REMARK  189  A    between atoms: _473  and  _474
REMARK  190  A    between atoms: _474  and  _475
REMARK  191  A    between atoms: _475  and  _476
REMARK  192  A    between atoms: _480  and  _482
REMARK  193  A    between atoms: _482  and  _483
REMARK  194  A    between atoms: _482  and  _485
REMARK  195  A    between atoms: _485  and  _486
REMARK  196  A    between atoms: _488  and  _490
REMARK  197  A    between atoms: _490  and  _491
REMARK  198  A    between atoms: _490  and  _493
REMARK  199  A    between atoms: _493  and  _494
REMARK  200  A    between atoms: _497  and  _499
REMARK  201  A    between atoms: _499  and  _500
REMARK  202  A    between atoms: _499  and  _502
REMARK  203  A    between atoms: _502  and  _503
REMARK  204  A    between atoms: _503  and  _504
REMARK  205  A    between atoms: _507  and  _509
REMARK  206  A    between atoms: _509  and  _510
REMARK  207  A    between atoms: _513  and  _515
REMARK  208  A    between atoms: _515  and  _516
REMARK  209  A    between atoms: _515  and  _518
REMARK  210  A    between atoms: _518  and  _519
REMARK  211  A    between atoms: _521  and  _523
REMARK  212  A    between atoms: _523  and  _524
REMARK  213  A    between atoms: _526  and  _528
REMARK  214  A    between atoms: _528  and  _529
REMARK  215  A    between atoms: _528  and  _531
REMARK  216  A    between atoms: _531  and  _532
REMARK  217  A    between atoms: _535  and  _537
REMARK  218  A    between atoms: _537  and  _538
REMARK  219  A    between atoms: _540  and  _542
REMARK  220  A    between atoms: _542  and  _543
REMARK  221  A    between atoms: _542  and  _545
REMARK  222  A    between atoms: _545  and  _546
REMARK  223  A    between atoms: _551  and  _553
REMARK  224  A    between atoms: _553  and  _554
REMARK  225  A    between atoms: _553  and  _556
REMARK  226  A    between atoms: _556  and  _557
REMARK  227  A    between atoms: _557  and  _558
REMARK  228  A    between atoms: _565  and  _566
REMARK  229  A    between atoms: _566  and  _582
REMARK  230  A    between atoms: _567  and  _569
REMARK  231  A    between atoms: _569  and  _570
REMARK  232  A    between atoms: _570  and  _571
REMARK  233  A    between atoms: _575  and  _577
REMARK  234  A    between atoms: _577  and  _578
REMARK  235  A    between atoms: _577  and  _585
REMARK  236  A    between atoms: _578  and  _579
REMARK  237  A    between atoms: _579  and  _580
REMARK  238  A    between atoms: _580  and  _581
REMARK  239  A    between atoms: _581  and  _582
REMARK  240  A    between atoms: _587  and  _589
REMARK  241  A    between atoms: _589  and  _590
REMARK  242  A    between atoms: _589  and  _592
REMARK  243  A    between atoms: _592  and  _593
REMARK  244  A    between atoms: _596  and  _598
REMARK  245  A    between atoms: _598  and  _599
REMARK  246  A    between atoms: _601  and  _603
REMARK  247  A    between atoms: _603  and  _604
REMARK  248  A    between atoms: _607  and  _609
REMARK  249  A    between atoms: _609  and  _610
REMARK  250  A    between atoms: _609  and  _612
REMARK  251  A    between atoms: _612  and  _613
REMARK  252  A    between atoms: _618  and  _619
REMARK                            x       y       z     vdW  Elec       q    Type
REMARK                         _______ _______ _______ _____ _____    ______ ____
ROOT
ATOM      1  O   HOH     1      26.110  16.682  28.618  0.00  0.00    +0.000 OA
ENDROOT
TORSDOF 0
REMARK  Name = ../refined-set-2016/2qrh/2qrh_pocket.pdb
REMARK  252 active torsions:
REMARK  status: ('A' for Active; 'I' for Inactive)
REMARK    1  A    between atoms: _1  and  _3
REMARK    2  A    between atoms: _3  and  _4
REMARK    3  A    between atoms: _3  and  _6
REMARK    4  A    between atoms: _6  and  _7
REMARK    5  A    between atoms: _12  and  _13
REMARK    6  A    between atoms: _15  and  _17
REMARK    7  A    between atoms: _17  and  _18
REMARK    8  A    between atoms: _17  and  _20
REMARK    9  A    between atoms: _20  and  _21
REMARK   10  A    between atoms: _21  and  _22
REMARK   11  A    between atoms: _25  and  _27
REMARK   12  A    between atoms: _27  and  _28
REMARK   13  A    between atoms: _30  and  _32
REMARK   14  A    between atoms: _32  and  _33
REMARK   15  A    between atoms: _32  and  _35
REMARK   16  A    between atoms: _35  and  _36
REMARK   17  A    between atoms: _41  and  _43
REMARK   18  A    between atoms: _43  and  _44
REMARK   19  A    between atoms: _46  and  _48
REMARK   20  A    between atoms: _48  and  _49
REMARK   21  A    between atoms: _51  and  _53
REMARK   22  A    between atoms: _53  and  _54
REMARK   23  A    between atoms: _53  and  _56
REMARK   24  A    between atoms: _56  and  _57
REMARK   25  A    between atoms: _60  and  _62
REMARK   26  A    between atoms: _62  and  _63
REMARK   27  A    between atoms: _65  and  _67
REMARK   28  A    between atoms: _67  and  _68
REMARK   29  A    between atoms: _67  and  _70
REMARK   30  A    between atoms: _70  and  _71
REMARK   31  A    between atoms: _71  and  _72
REMARK   32  A    between atoms: _72  and  _73
REMARK   33  A    between atoms: _82  and  _84
REMARK   34  A    between atoms: _84  and  _85
REMARK   35  A    between atoms: _84  and  _87
REMARK   36  A    between atoms: _87  and  _88
REMARK   37  A    between atoms: _91  and  _93
REMARK   38  A    between atoms: _93  and  _94
REMARK   39  A    between atoms: _97  and  _99
REMARK   40  A    between atoms: _99  and  _100
REMARK   41  A    between atoms: _99  and  _102
REMARK   42  A    between atoms: _102  and  _103
REMARK   43  A    between atoms: _109  and  _111
REMARK   44  A    between atoms: _111  and  _112
REMARK   45  A    between atoms: _111  and  _114
REMARK   46  A    between atoms: _114  and  _115
REMARK   47  A    between atoms: _120  and  _121
REMARK   48  A    between atoms: _124  and  _125
REMARK   49  A    between atoms: _130  and  _132
REMARK   50  A    between atoms: _132  and  _133
REMARK   51  A    between atoms: _132  and  _135
REMARK   52  A    between atoms: _135  and  _136
REMARK   53  A    between atoms: _141  and  _143
REMARK   54  A    between atoms: _143  and  _144
REMARK   55  A    between atoms: _143  and  _146
REMARK   56  A    between atoms: _146  and  _147
REMARK   57  A    between atoms: _150  and  _152
REMARK   58  A    between atoms: _152  and  _153
REMARK   59  A    between atoms: _152  and  _155
REMARK   60  A    between atoms: _155  and  _156
REMARK   61  A    between atoms: _161  and  _163
REMARK   62  A    between atoms: _163  and  _164
REMARK   63  A    between atoms: _163  and  _166
REMARK   64  A    between atoms: _166  and  _167
REMARK   65  A    between atoms: _173  and  _175
REMARK   66  A    between atoms: _175  and  _176
REMARK   67  A    between atoms: _175  and  _178
REMARK   68  A    between atoms: _178  and  _179
REMARK   69  A    between atoms: _185  and  _187
REMARK   70  A    between atoms: _187  and  _188
REMARK   71  A    between atoms: _187  and  _190
REMARK   72  A    between atoms: _190  and  _191
REMARK   73  A    between atoms: _191  and  _192
REMARK   74  A    between atoms: _195  and  _197
REMARK   75  A    between atoms: _197  and  _198
REMARK   76  A    between atoms: _197  and  _200
REMARK   77  A    between atoms: _200  and  _201
REMARK   78  A    between atoms: _201  and  _202
REMARK   79  A    between atoms: _202  and  _203
REMARK   80  A    between atoms: _212  and  _214
REMARK   81  A    between atoms: _214  and  _215
REMARK   82  A    between atoms: _214  and  _217
REMARK   83  A    between atoms: _217  and  _218
REMARK   84  A    between atoms: _223  and  _225
REMARK   85  A    between atoms: _225  and  _226
REMARK   86  A    between atoms: _225  and  _228
REMARK   87  A    between atoms: _228  and  _229
REMARK   88  A    between atoms: _232  and  _234
REMARK   89  A    between atoms: _234  and  _235
REMARK   90  A    between atoms: _234  and  _237
REMARK   91  A    between atoms: _237  and  _238
REMARK   92  A    between atoms: _241  and  _243
REMARK   93  A    between atoms: _243  and  _244
REMARK   94  A    between atoms: _243  and  _246
REMARK   95  A    between atoms: _246  and  _247
REMARK   96  A    between atoms: _252  and  _254
REMARK   97  A    between atoms: _254  and  _255
REMARK   98  A    between atoms: _254  and  _257
REMARK   99  A    between atoms: _257  and  _258
REMARK  100  A    between atoms: _261  and  _263
REMARK  101  A    between atoms: _263  and  _264
REMARK  102  A    between atoms: _263  and  _266
REMARK  103  A    between atoms: _266  and  _267
REMARK  104  A    between atoms: _272  and  _274
REMARK  105  A    between atoms: _274  and  _275
REMARK  106  A    between atoms: _274  and  _277
REMARK  107  A    between atoms: _277  and  _278
REMARK  108  A    between atoms: _283  and  _285
REMARK  109  A    between atoms: _285  and  _286
REMARK  110  A    between atoms: _285  and  _288
REMARK  111  A    between atoms: _288  and  _289
REMARK  112  A    between atoms: _292  and  _294
REMARK  113  A    between atoms: _294  and  _295
REMARK  114  A    between atoms: _294  and  _297
REMARK  115  A    between atoms: _300  and  _302
REMARK  116  A    between atoms: _302  and  _303
REMARK  117  A    between atoms: _302  and  _305
REMARK  118  A    between atoms: _305  and  _306
REMARK  119  A    between atoms: _309  and  _311
REMARK  120  A    between atoms: _311  and  _312
REMARK  121  A    between atoms: _311  and  _314
REMARK  122  A    between atoms: _314  and  _315
REMARK  123  A    between atoms: _315  and  _316
REMARK  124  A    between atoms: _319  and  _321
REMARK  125  A    between atoms: _321  and  _322
REMARK  126  A    between atoms: _325  and  _327
REMARK  127  A    between atoms: _327  and  _328
REMARK  128  A    between atoms: _327  and  _330
REMARK  129  A    between atoms: _330  and  _331
REMARK  130  A    between atoms: _334  and  _336
REMARK  131  A    between atoms: _336  and  _337
REMARK  132  A    between atoms: _336  and  _339
REMARK  133  A    between atoms: _339  and  _340
REMARK  134  A    between atoms: _340  and  _341
REMARK  135  A    between atoms: _344  and  _346
REMARK  136  A    between atoms: _346  and  _347
REMARK  137  A    between atoms: _346  and  _349
REMARK  138  A    between atoms: _349  and  _350
REMARK  139  A    between atoms: _355  and  _357
REMARK  140  A    between atoms: _357  and  _358
REMARK  141  A    between atoms: _360  and  _362
REMARK  142  A    between atoms: _362  and  _363
REMARK  143  A    between atoms: _362  and  _365
REMARK  144  A    between atoms: _368  and  _370
REMARK  145  A    between atoms: _370  and  _371
REMARK  146  A    between atoms: _374  and  _376
REMARK  147  A    between atoms: _376  and  _377
REMARK  148  A    between atoms: _376  and  _379
REMARK  149  A    between atoms: _379  and  _380
REMARK  150  A    between atoms: _385  and  _387
REMARK  151  A    between atoms: _387  and  _388
REMARK  152  A    between atoms: _387  and  _390
REMARK  153  A    between atoms: _390  and  _391
REMARK  154  A    between atoms: _391  and  _392
REMARK  155  A    between atoms: _392  and  _393
REMARK  156  A    between atoms: _393  and  _394
REMARK  157  A    between atoms: _398  and  _400
REMARK  158  A    between atoms: _400  and  _401
REMARK  159  A    between atoms: _400  and  _403
REMARK  160  A    between atoms: _403  and  _404
REMARK  161  A    between atoms: _407  and  _409
REMARK  162  A    between atoms: _409  and  _410
REMARK  163  A    between atoms: _409  and  _412
REMARK  164  A    between atoms: _412  and  _413
REMARK  165  A    between atoms: _418  and  _420
REMARK  166  A    between atoms: _420  and  _421
REMARK  167  A    between atoms: _423  and  _425
REMARK  168  A    between atoms: _425  and  _426
REMARK  169  A    between atoms: _425  and  _428
REMARK  170  A    between atoms: _428  and  _429
REMARK  171  A    between atoms: _429  and  _430
REMARK  172  A    between atoms: _430  and  _431
REMARK  173  A    between atoms: _431  and  _432
REMARK  174  A    between atoms: _436  and  _438
REMARK  175  A    between atoms: _438  and  _439
REMARK  176  A    between atoms: _438  and  _441
REMARK  177  A    between atoms: _441  and  _442
REMARK  178  A    between atoms: _442  and  _443
REMARK  179  A    between atoms: _443  and  _444
REMARK  180  A    between atoms: _453  and  _455
REMARK  181  A    between atoms: _455  and  _456
REMARK  182  A    between atoms: _455  and  _458
REMARK  183  A    between atoms: _458  and  _459
REMARK  184  A    between atoms: _464  and  _465
REMARK  185  A    between atoms: _467  and  _469
REMARK  186  A    between atoms: _469  and  _470
REMARK  187  A    between atoms: _469  and  _472
REMARK  188  A    between atoms: _472  and  _473
REMARK  189  A    between atoms: _473  and  _474
REMARK  190  A    between atoms: _474  and  _475
REMARK  191  A    between atoms: _475  and  _476
REMARK  192  A    between atoms: _480  and  _482
REMARK  193  A    between atoms: _482  and  _483
REMARK  194  A    between atoms: _482  and  _485
REMARK  195  A    between atoms: _485  and  _486
REMARK  196  A    between atoms: _488  and  _490
REMARK  197  A    between atoms: _490  and  _491
REMARK  198  A    between atoms: _490  and  _493
REMARK  199  A    between atoms: _493  and  _494
REMARK  200  A    between atoms: _497  and  _499
REMARK  201  A    between atoms: _499  and  _500
REMARK  202  A    between atoms: _499  and  _502
REMARK  203  A    between atoms: _502  and  _503
REMARK  204  A    between atoms: _503  and  _504
REMARK  205  A    between atoms: _507  and  _509
REMARK  206  A    between atoms: _509  and  _510
REMARK  207  A    between atoms: _513  and  _515
REMARK  208  A    between atoms: _515  and  _516
REMARK  209  A    between atoms: _515  and  _518
REMARK  210  A    between atoms: _518  and  _519
REMARK  211  A    between atoms: _521  and  _523
REMARK  212  A    between atoms: _523  and  _524
REMARK  213  A    between atoms: _526  and  _528
REMARK  214  A    between atoms: _528  and  _529
REMARK  215  A    between atoms: _528  and  _531
REMARK  216  A    between atoms: _531  and  _532
REMARK  217  A    between atoms: _535  and  _537
REMARK  218  A    between atoms: _537  and  _538
REMARK  219  A    between atoms: _540  and  _542
REMARK  220  A    between atoms: _542  and  _543
REMARK  221  A    between atoms: _542  and  _545
REMARK  222  A    between atoms: _545  and  _546
REMARK  223  A    between atoms: _551  and  _553
REMARK  224  A    between atoms: _553  and  _554
REMARK  225  A    between atoms: _553  and  _556
REMARK  226  A    between atoms: _556  and  _557
REMARK  227  A    between atoms: _557  and  _558
REMARK  228  A    between atoms: _565  and  _566
REMARK  229  A    between atoms: _566  and  _582
REMARK  230  A    between atoms: _567  and  _569
REMARK  231  A    between atoms: _569  and  _570
REMARK  232  A    between atoms: _570  and  _571
REMARK  233  A    between atoms: _575  and  _577
REMARK  234  A    between atoms: _577  and  _578
REMARK  235  A    between atoms: _577  and  _585
REMARK  236  A    between atoms: _578  and  _579
REMARK  237  A    between atoms: _579  and  _580
REMARK  238  A    between atoms: _580  and  _581
REMARK  239  A    between atoms: _581  and  _582
REMARK  240  A    between atoms: _587  and  _589
REMARK  241  A    between atoms: _589  and  _590
REMARK  242  A    between atoms: _589  and  _592
REMARK  243  A    between atoms: _592  and  _593
REMARK  244  A    between atoms: _596  and  _598
REMARK  245  A    between atoms: _598  and  _599
REMARK  246  A    between atoms: _601  and  _603
REMARK  247  A    between atoms: _603  and  _604
REMARK  248  A    between atoms: _607  and  _609
REMARK  249  A    between atoms: _609  and  _610
REMARK  250  A    between atoms: _609  and  _612
REMARK  251  A    between atoms: _612  and  _613
REMARK  252  A    between atoms: _618  and  _619
REMARK                            x       y       z     vdW  Elec       q    Type
REMARK                         _______ _______ _______ _____ _____    ______ ____
ROOT
ATOM      1  O   HOH     1      44.213  22.819  32.001  0.00  0.00    +0.000 OA
ENDROOT
TORSDOF 0
REMARK  Name = ../refined-set-2016/2qrh/2qrh_pocket.pdb
REMARK  252 active torsions:
REMARK  status: ('A' for Active; 'I' for Inactive)
REMARK    1  A    between atoms: _1  and  _3
REMARK    2  A    between atoms: _3  and  _4
REMARK    3  A    between atoms: _3  and  _6
REMARK    4  A    between atoms: _6  and  _7
REMARK    5  A    between atoms: _12  and  _13
REMARK    6  A    between atoms: _15  and  _17
REMARK    7  A    between atoms: _17  and  _18
REMARK    8  A    between atoms: _17  and  _20
REMARK    9  A    between atoms: _20  and  _21
REMARK   10  A    between atoms: _21  and  _22
REMARK   11  A    between atoms: _25  and  _27
REMARK   12  A    between atoms: _27  and  _28
REMARK   13  A    between atoms: _30  and  _32
REMARK   14  A    between atoms: _32  and  _33
REMARK   15  A    between atoms: _32  and  _35
REMARK   16  A    between atoms: _35  and  _36
REMARK   17  A    between atoms: _41  and  _43
REMARK   18  A    between atoms: _43  and  _44
REMARK   19  A    between atoms: _46  and  _48
REMARK   20  A    between atoms: _48  and  _49
REMARK   21  A    between atoms: _51  and  _53
REMARK   22  A    between atoms: _53  and  _54
REMARK   23  A    between atoms: _53  and  _56
REMARK   24  A    between atoms: _56  and  _57
REMARK   25  A    between atoms: _60  and  _62
REMARK   26  A    between atoms: _62  and  _63
REMARK   27  A    between atoms: _65  and  _67
REMARK   28  A    between atoms: _67  and  _68
REMARK   29  A    between atoms: _67  and  _70
REMARK   30  A    between atoms: _70  and  _71
REMARK   31  A    between atoms: _71  and  _72
REMARK   32  A    between atoms: _72  and  _73
REMARK   33  A    between atoms: _82  and  _84
REMARK   34  A    between atoms: _84  and  _85
REMARK   35  A    between atoms: _84  and  _87
REMARK   36  A    between atoms: _87  and  _88
REMARK   37  A    between atoms: _91  and  _93
REMARK   38  A    between atoms: _93  and  _94
REMARK   39  A    between atoms: _97  and  _99
REMARK   40  A    between atoms: _99  and  _100
REMARK   41  A    between atoms: _99  and  _102
REMARK   42  A    between atoms: _102  and  _103
REMARK   43  A    between atoms: _109  and  _111
REMARK   44  A    between atoms: _111  and  _112
REMARK   45  A    between atoms: _111  and  _114
REMARK   46  A    between atoms: _114  and  _115
REMARK   47  A    between atoms: _120  and  _121
REMARK   48  A    between atoms: _124  and  _125
REMARK   49  A    between atoms: _130  and  _132
REMARK   50  A    between atoms: _132  and  _133
REMARK   51  A    between atoms: _132  and  _135
REMARK   52  A    between atoms: _135  and  _136
REMARK   53  A    between atoms: _141  and  _143
REMARK   54  A    between atoms: _143  and  _144
REMARK   55  A    between atoms: _143  and  _146
REMARK   56  A    between atoms: _146  and  _147
REMARK   57  A    between atoms: _150  and  _152
REMARK   58  A    between atoms: _152  and  _153
REMARK   59  A    between atoms: _152  and  _155
REMARK   60  A    between atoms: _155  and  _156
REMARK   61  A    between atoms: _161  and  _163
REMARK   62  A    between atoms: _163  and  _164
REMARK   63  A    between atoms: _163  and  _166
REMARK   64  A    between atoms: _166  and  _167
REMARK   65  A    between atoms: _173  and  _175
REMARK   66  A    between atoms: _175  and  _176
REMARK   67  A    between atoms: _175  and  _178
REMARK   68  A    between atoms: _178  and  _179
REMARK   69  A    between atoms: _185  and  _187
REMARK   70  A    between atoms: _187  and  _188
REMARK   71  A    between atoms: _187  and  _190
REMARK   72  A    between atoms: _190  and  _191
REMARK   73  A    between atoms: _191  and  _192
REMARK   74  A    between atoms: _195  and  _197
REMARK   75  A    between atoms: _197  and  _198
REMARK   76  A    between atoms: _197  and  _200
REMARK   77  A    between atoms: _200  and  _201
REMARK   78  A    between atoms: _201  and  _202
REMARK   79  A    between atoms: _202  and  _203
REMARK   80  A    between atoms: _212  and  _214
REMARK   81  A    between atoms: _214  and  _215
REMARK   82  A    between atoms: _214  and  _217
REMARK   83  A    between atoms: _217  and  _218
REMARK   84  A    between atoms: _223  and  _225
REMARK   85  A    between atoms: _225  and  _226
REMARK   86  A    between atoms: _225  and  _228
REMARK   87  A    between atoms: _228  and  _229
REMARK   88  A    between atoms: _232  and  _234
REMARK   89  A    between atoms: _234  and  _235
REMARK   90  A    between atoms: _234  and  _237
REMARK   91  A    between atoms: _237  and  _238
REMARK   92  A    between atoms: _241  and  _243
REMARK   93  A    between atoms: _243  and  _244
REMARK   94  A    between atoms: _243  and  _246
REMARK   95  A    between atoms: _246  and  _247
REMARK   96  A    between atoms: _252  and  _254
REMARK   97  A    between atoms: _254  and  _255
REMARK   98  A    between atoms: _254  and  _257
REMARK   99  A    between atoms: _257  and  _258
REMARK  100  A    between atoms: _261  and  _263
REMARK  101  A    between atoms: _263  and  _264
REMARK  102  A    between atoms: _263  and  _266
REMARK  103  A    between atoms: _266  and  _267
REMARK  104  A    between atoms: _272  and  _274
REMARK  105  A    between atoms: _274  and  _275
REMARK  106  A    between atoms: _274  and  _277
REMARK  107  A    between atoms: _277  and  _278
REMARK  108  A    between atoms: _283  and  _285
REMARK  109  A    between atoms: _285  and  _286
REMARK  110  A    between atoms: _285  and  _288
REMARK  111  A    between atoms: _288  and  _289
REMARK  112  A    between atoms: _292  and  _294
REMARK  113  A    between atoms: _294  and  _295
REMARK  114  A    between atoms: _294  and  _297
REMARK  115  A    between atoms: _300  and  _302
REMARK  116  A    between atoms: _302  and  _303
REMARK  117  A    between atoms: _302  and  _305
REMARK  118  A    between atoms: _305  and  _306
REMARK  119  A    between atoms: _309  and  _311
REMARK  120  A    between atoms: _311  and  _312
REMARK  121  A    between atoms: _311  and  _314
REMARK  122  A    between atoms: _314  and  _315
REMARK  123  A    between atoms: _315  and  _316
REMARK  124  A    between atoms: _319  and  _321
REMARK  125  A    between atoms: _321  and  _322
REMARK  126  A    between atoms: _325  and  _327
REMARK  127  A    between atoms: _327  and  _328
REMARK  128  A    between atoms: _327  and  _330
REMARK  129  A    between atoms: _330  and  _331
REMARK  130  A    between atoms: _334  and  _336
REMARK  131  A    between atoms: _336  and  _337
REMARK  132  A    between atoms: _336  and  _339
REMARK  133  A    between atoms: _339  and  _340
REMARK  134  A    between atoms: _340  and  _341
REMARK  135  A    between atoms: _344  and  _346
REMARK  136  A    between atoms: _346  and  _347
REMARK  137  A    between atoms: _346  and  _349
REMARK  138  A    between atoms: _349  and  _350
REMARK  139  A    between atoms: _355  and  _357
REMARK  140  A    between atoms: _357  and  _358
REMARK  141  A    between atoms: _360  and  _362
REMARK  142  A    between atoms: _362  and  _363
REMARK  143  A    between atoms: _362  and  _365
REMARK  144  A    between atoms: _368  and  _370
REMARK  145  A    between atoms: _370  and  _371
REMARK  146  A    between atoms: _374  and  _376
REMARK  147  A    between atoms: _376  and  _377
REMARK  148  A    between atoms: _376  and  _379
REMARK  149  A    between atoms: _379  and  _380
REMARK  150  A    between atoms: _385  and  _387
REMARK  151  A    between atoms: _387  and  _388
REMARK  152  A    between atoms: _387  and  _390
REMARK  153  A    between atoms: _390  and  _391
REMARK  154  A    between atoms: _391  and  _392
REMARK  155  A    between atoms: _392  and  _393
REMARK  156  A    between atoms: _393  and  _394
REMARK  157  A    between atoms: _398  and  _400
REMARK  158  A    between atoms: _400  and  _401
REMARK  159  A    between atoms: _400  and  _403
REMARK  160  A    between atoms: _403  and  _404
REMARK  161  A    between atoms: _407  and  _409
REMARK  162  A    between atoms: _409  and  _410
REMARK  163  A    between atoms: _409  and  _412
REMARK  164  A    between atoms: _412  and  _413
REMARK  165  A    between atoms: _418  and  _420
REMARK  166  A    between atoms: _420  and  _421
REMARK  167  A    between atoms: _423  and  _425
REMARK  168  A    between atoms: _425  and  _426
REMARK  169  A    between atoms: _425  and  _428
REMARK  170  A    between atoms: _428  and  _429
REMARK  171  A    between atoms: _429  and  _430
REMARK  172  A    between atoms: _430  and  _431
REMARK  173  A    between atoms: _431  and  _432
REMARK  174  A    between atoms: _436  and  _438
REMARK  175  A    between atoms: _438  and  _439
REMARK  176  A    between atoms: _438  and  _441
REMARK  177  A    between atoms: _441  and  _442
REMARK  178  A    between atoms: _442  and  _443
REMARK  179  A    between atoms: _443  and  _444
REMARK  180  A    between atoms: _453  and  _455
REMARK  181  A    between atoms: _455  and  _456
REMARK  182  A    between atoms: _455  and  _458
REMARK  183  A    between atoms: _458  and  _459
REMARK  184  A    between atoms: _464  and  _465
REMARK  185  A    between atoms: _467  and  _469
REMARK  186  A    between atoms: _469  and  _470
REMARK  187  A    between atoms: _469  and  _472
REMARK  188  A    between atoms: _472  and  _473
REMARK  189  A    between atoms: _473  and  _474
REMARK  190  A    between atoms: _474  and  _475
REMARK  191  A    between atoms: _475  and  _476
REMARK  192  A    between atoms: _480  and  _482
REMARK  193  A    between atoms: _482  and  _483
REMARK  194  A    between atoms: _482  and  _485
REMARK  195  A    between atoms: _485  and  _486
REMARK  196  A    between atoms: _488  and  _490
REMARK  197  A    between atoms: _490  and  _491
REMARK  198  A    between atoms: _490  and  _493
REMARK  199  A    between atoms: _493  and  _494
REMARK  200  A    between atoms: _497  and  _499
REMARK  201  A    between atoms: _499  and  _500
REMARK  202  A    between atoms: _499  and  _502
REMARK  203  A    between atoms: _502  and  _503
REMARK  204  A    between atoms: _503  and  _504
REMARK  205  A    between atoms: _507  and  _509
REMARK  206  A    between atoms: _509  and  _510
REMARK  207  A    between atoms: _513  and  _515
REMARK  208  A    between atoms: _515  and  _516
REMARK  209  A    between atoms: _515  and  _518
REMARK  210  A    between atoms: _518  and  _519
REMARK  211  A    between atoms: _521  and  _523
REMARK  212  A    between atoms: _523  and  _524
REMARK  213  A    between atoms: _526  and  _528
REMARK  214  A    between atoms: _528  and  _529
REMARK  215  A    between atoms: _528  and  _531
REMARK  216  A    between atoms: _531  and  _532
REMARK  217  A    between atoms: _535  and  _537
REMARK  218  A    between atoms: _537  and  _538
REMARK  219  A    between atoms: _540  and  _542
REMARK  220  A    between atoms: _542  and  _543
REMARK  221  A    between atoms: _542  and  _545
REMARK  222  A    between atoms: _545  and  _546
REMARK  223  A    between atoms: _551  and  _553
REMARK  224  A    between atoms: _553  and  _554
REMARK  225  A    between atoms: _553  and  _556
REMARK  226  A    between atoms: _556  and  _557
REMARK  227  A    between atoms: _557  and  _558
REMARK  228  A    between atoms: _565  and  _566
REMARK  229  A    between atoms: _566  and  _582
REMARK  230  A    between atoms: _567  and  _569
REMARK  231  A    between atoms: _569  and  _570
REMARK  232  A    between atoms: _570  and  _571
REMARK  233  A    between atoms: _575  and  _577
REMARK  234  A    between atoms: _577  and  _578
REMARK  235  A    between atoms: _577  and  _585
REMARK  236  A    between atoms: _578  and  _579
REMARK  237  A    between atoms: _579  and  _580
REMARK  238  A    between atoms: _580  and  _581
REMARK  239  A    between atoms: _581  and  _582
REMARK  240  A    between atoms: _587  and  _589
REMARK  241  A    between atoms: _589  and  _590
REMARK  242  A    between atoms: _589  and  _592
REMARK  243  A    between atoms: _592  and  _593
REMARK  244  A    between atoms: _596  and  _598
REMARK  245  A    between atoms: _598  and  _599
REMARK  246  A    between atoms: _601  and  _603
REMARK  247  A    between atoms: _603  and  _604
REMARK  248  A    between atoms: _607  and  _609
REMARK  249  A    between atoms: _609  and  _610
REMARK  250  A    between atoms: _609  and  _612
REMARK  251  A    between atoms: _612  and  _613
REMARK  252  A    between atoms: _618  and  _619
REMARK                            x       y       z     vdW  Elec       q    Type
REMARK                         _______ _______ _______ _____ _____    ______ ____
ROOT
ATOM      1  O   HOH     1      29.751  25.983  28.957  0.00  0.00    +0.000 OA
ENDROOT
TORSDOF 0
REMARK  Name = ../refined-set-2016/2qrh/2qrh_pocket.pdb
REMARK  252 active torsions:
REMARK  status: ('A' for Active; 'I' for Inactive)
REMARK    1  A    between atoms: _1  and  _3
REMARK    2  A    between atoms: _3  and  _4
REMARK    3  A    between atoms: _3  and  _6
REMARK    4  A    between atoms: _6  and  _7
REMARK    5  A    between atoms: _12  and  _13
REMARK    6  A    between atoms: _15  and  _17
REMARK    7  A    between atoms: _17  and  _18
REMARK    8  A    between atoms: _17  and  _20
REMARK    9  A    between atoms: _20  and  _21
REMARK   10  A    between atoms: _21  and  _22
REMARK   11  A    between atoms: _25  and  _27
REMARK   12  A    between atoms: _27  and  _28
REMARK   13  A    between atoms: _30  and  _32
REMARK   14  A    between atoms: _32  and  _33
REMARK   15  A    between atoms: _32  and  _35
REMARK   16  A    between atoms: _35  and  _36
REMARK   17  A    between atoms: _41  and  _43
REMARK   18  A    between atoms: _43  and  _44
REMARK   19  A    between atoms: _46  and  _48
REMARK   20  A    between atoms: _48  and  _49
REMARK   21  A    between atoms: _51  and  _53
REMARK   22  A    between atoms: _53  and  _54
REMARK   23  A    between atoms: _53  and  _56
REMARK   24  A    between atoms: _56  and  _57
REMARK   25  A    between atoms: _60  and  _62
REMARK   26  A    between atoms: _62  and  _63
REMARK   27  A    between atoms: _65  and  _67
REMARK   28  A    between atoms: _67  and  _68
REMARK   29  A    between atoms: _67  and  _70
REMARK   30  A    between atoms: _70  and  _71
REMARK   31  A    between atoms: _71  and  _72
REMARK   32  A    between atoms: _72  and  _73
REMARK   33  A    between atoms: _82  and  _84
REMARK   34  A    between atoms: _84  and  _85
REMARK   35  A    between atoms: _84  and  _87
REMARK   36  A    between atoms: _87  and  _88
REMARK   37  A    between atoms: _91  and  _93
REMARK   38  A    between atoms: _93  and  _94
REMARK   39  A    between atoms: _97  and  _99
REMARK   40  A    between atoms: _99  and  _100
REMARK   41  A    between atoms: _99  and  _102
REMARK   42  A    between atoms: _102  and  _103
REMARK   43  A    between atoms: _109  and  _111
REMARK   44  A    between atoms: _111  and  _112
REMARK   45  A    between atoms: _111  and  _114
REMARK   46  A    between atoms: _114  and  _115
REMARK   47  A    between atoms: _120  and  _121
REMARK   48  A    between atoms: _124  and  _125
REMARK   49  A    between atoms: _130  and  _132
REMARK   50  A    between atoms: _132  and  _133
REMARK   51  A    between atoms: _132  and  _135
REMARK   52  A    between atoms: _135  and  _136
REMARK   53  A    between atoms: _141  and  _143
REMARK   54  A    between atoms: _143  and  _144
REMARK   55  A    between atoms: _143  and  _146
REMARK   56  A    between atoms: _146  and  _147
REMARK   57  A    between atoms: _150  and  _152
REMARK   58  A    between atoms: _152  and  _153
REMARK   59  A    between atoms: _152  and  _155
REMARK   60  A    between atoms: _155  and  _156
REMARK   61  A    between atoms: _161  and  _163
REMARK   62  A    between atoms: _163  and  _164
REMARK   63  A    between atoms: _163  and  _166
REMARK   64  A    between atoms: _166  and  _167
REMARK   65  A    between atoms: _173  and  _175
REMARK   66  A    between atoms: _175  and  _176
REMARK   67  A    between atoms: _175  and  _178
REMARK   68  A    between atoms: _178  and  _179
REMARK   69  A    between atoms: _185  and  _187
REMARK   70  A    between atoms: _187  and  _188
REMARK   71  A    between atoms: _187  and  _190
REMARK   72  A    between atoms: _190  and  _191
REMARK   73  A    between atoms: _191  and  _192
REMARK   74  A    between atoms: _195  and  _197
REMARK   75  A    between atoms: _197  and  _198
REMARK   76  A    between atoms: _197  and  _200
REMARK   77  A    between atoms: _200  and  _201
REMARK   78  A    between atoms: _201  and  _202
REMARK   79  A    between atoms: _202  and  _203
REMARK   80  A    between atoms: _212  and  _214
REMARK   81  A    between atoms: _214  and  _215
REMARK   82  A    between atoms: _214  and  _217
REMARK   83  A    between atoms: _217  and  _218
REMARK   84  A    between atoms: _223  and  _225
REMARK   85  A    between atoms: _225  and  _226
REMARK   86  A    between atoms: _225  and  _228
REMARK   87  A    between atoms: _228  and  _229
REMARK   88  A    between atoms: _232  and  _234
REMARK   89  A    between atoms: _234  and  _235
REMARK   90  A    between atoms: _234  and  _237
REMARK   91  A    between atoms: _237  and  _238
REMARK   92  A    between atoms: _241  and  _243
REMARK   93  A    between atoms: _243  and  _244
REMARK   94  A    between atoms: _243  and  _246
REMARK   95  A    between atoms: _246  and  _247
REMARK   96  A    between atoms: _252  and  _254
REMARK   97  A    between atoms: _254  and  _255
REMARK   98  A    between atoms: _254  and  _257
REMARK   99  A    between atoms: _257  and  _258
REMARK  100  A    between atoms: _261  and  _263
REMARK  101  A    between atoms: _263  and  _264
REMARK  102  A    between atoms: _263  and  _266
REMARK  103  A    between atoms: _266  and  _267
REMARK  104  A    between atoms: _272  and  _274
REMARK  105  A    between atoms: _274  and  _275
REMARK  106  A    between atoms: _274  and  _277
REMARK  107  A    between atoms: _277  and  _278
REMARK  108  A    between atoms: _283  and  _285
REMARK  109  A    between atoms: _285  and  _286
REMARK  110  A    between atoms: _285  and  _288
REMARK  111  A    between atoms: _288  and  _289
REMARK  112  A    between atoms: _292  and  _294
REMARK  113  A    between atoms: _294  and  _295
REMARK  114  A    between atoms: _294  and  _297
REMARK  115  A    between atoms: _300  and  _302
REMARK  116  A    between atoms: _302  and  _303
REMARK  117  A    between atoms: _302  and  _305
REMARK  118  A    between atoms: _305  and  _306
REMARK  119  A    between atoms: _309  and  _311
REMARK  120  A    between atoms: _311  and  _312
REMARK  121  A    between atoms: _311  and  _314
REMARK  122  A    between atoms: _314  and  _315
REMARK  123  A    between atoms: _315  and  _316
REMARK  124  A    between atoms: _319  and  _321
REMARK  125  A    between atoms: _321  and  _322
REMARK  126  A    between atoms: _325  and  _327
REMARK  127  A    between atoms: _327  and  _328
REMARK  128  A    between atoms: _327  and  _330
REMARK  129  A    between atoms: _330  and  _331
REMARK  130  A    between atoms: _334  and  _336
REMARK  131  A    between atoms: _336  and  _337
REMARK  132  A    between atoms: _336  and  _339
REMARK  133  A    between atoms: _339  and  _340
REMARK  134  A    between atoms: _340  and  _341
REMARK  135  A    between atoms: _344  and  _346
REMARK  136  A    between atoms: _346  and  _347
REMARK  137  A    between atoms: _346  and  _349
REMARK  138  A    between atoms: _349  and  _350
REMARK  139  A    between atoms: _355  and  _357
REMARK  140  A    between atoms: _357  and  _358
REMARK  141  A    between atoms: _360  and  _362
REMARK  142  A    between atoms: _362  and  _363
REMARK  143  A    between atoms: _362  and  _365
REMARK  144  A    between atoms: _368  and  _370
REMARK  145  A    between atoms: _370  and  _371
REMARK  146  A    between atoms: _374  and  _376
REMARK  147  A    between atoms: _376  and  _377
REMARK  148  A    between atoms: _376  and  _379
REMARK  149  A    between atoms: _379  and  _380
REMARK  150  A    between atoms: _385  and  _387
REMARK  151  A    between atoms: _387  and  _388
REMARK  152  A    between atoms: _387  and  _390
REMARK  153  A    between atoms: _390  and  _391
REMARK  154  A    between atoms: _391  and  _392
REMARK  155  A    between atoms: _392  and  _393
REMARK  156  A    between atoms: _393  and  _394
REMARK  157  A    between atoms: _398  and  _400
REMARK  158  A    between atoms: _400  and  _401
REMARK  159  A    between atoms: _400  and  _403
REMARK  160  A    between atoms: _403  and  _404
REMARK  161  A    between atoms: _407  and  _409
REMARK  162  A    between atoms: _409  and  _410
REMARK  163  A    between atoms: _409  and  _412
REMARK  164  A    between atoms: _412  and  _413
REMARK  165  A    between atoms: _418  and  _420
REMARK  166  A    between atoms: _420  and  _421
REMARK  167  A    between atoms: _423  and  _425
REMARK  168  A    between atoms: _425  and  _426
REMARK  169  A    between atoms: _425  and  _428
REMARK  170  A    between atoms: _428  and  _429
REMARK  171  A    between atoms: _429  and  _430
REMARK  172  A    between atoms: _430  and  _431
REMARK  173  A    between atoms: _431  and  _432
REMARK  174  A    between atoms: _436  and  _438
REMARK  175  A    between atoms: _438  and  _439
REMARK  176  A    between atoms: _438  and  _441
REMARK  177  A    between atoms: _441  and  _442
REMARK  178  A    between atoms: _442  and  _443
REMARK  179  A    between atoms: _443  and  _444
REMARK  180  A    between atoms: _453  and  _455
REMARK  181  A    between atoms: _455  and  _456
REMARK  182  A    between atoms: _455  and  _458
REMARK  183  A    between atoms: _458  and  _459
REMARK  184  A    between atoms: _464  and  _465
REMARK  185  A    between atoms: _467  and  _469
REMARK  186  A    between atoms: _469  and  _470
REMARK  187  A    between atoms: _469  and  _472
REMARK  188  A    between atoms: _472  and  _473
REMARK  189  A    between atoms: _473  and  _474
REMARK  190  A    between atoms: _474  and  _475
REMARK  191  A    between atoms: _475  and  _476
REMARK  192  A    between atoms: _480  and  _482
REMARK  193  A    between atoms: _482  and  _483
REMARK  194  A    between atoms: _482  and  _485
REMARK  195  A    between atoms: _485  and  _486
REMARK  196  A    between atoms: _488  and  _490
REMARK  197  A    between atoms: _490  and  _491
REMARK  198  A    between atoms: _490  and  _493
REMARK  199  A    between atoms: _493  and  _494
REMARK  200  A    between atoms: _497  and  _499
REMARK  201  A    between atoms: _499  and  _500
REMARK  202  A    between atoms: _499  and  _502
REMARK  203  A    between atoms: _502  and  _503
REMARK  204  A    between atoms: _503  and  _504
REMARK  205  A    between atoms: _507  and  _509
REMARK  206  A    between atoms: _509  and  _510
REMARK  207  A    between atoms: _513  and  _515
REMARK  208  A    between atoms: _515  and  _516
REMARK  209  A    between atoms: _515  and  _518
REMARK  210  A    between atoms: _518  and  _519
REMARK  211  A    between atoms: _521  and  _523
REMARK  212  A    between atoms: _523  and  _524
REMARK  213  A    between atoms: _526  and  _528
REMARK  214  A    between atoms: _528  and  _529
REMARK  215  A    between atoms: _528  and  _531
REMARK  216  A    between atoms: _531  and  _532
REMARK  217  A    between atoms: _535  and  _537
REMARK  218  A    between atoms: _537  and  _538
REMARK  219  A    between atoms: _540  and  _542
REMARK  220  A    between atoms: _542  and  _543
REMARK  221  A    between atoms: _542  and  _545
REMARK  222  A    between atoms: _545  and  _546
REMARK  223  A    between atoms: _551  and  _553
REMARK  224  A    between atoms: _553  and  _554
REMARK  225  A    between atoms: _553  and  _556
REMARK  226  A    between atoms: _556  and  _557
REMARK  227  A    between atoms: _557  and  _558
REMARK  228  A    between atoms: _565  and  _566
REMARK  229  A    between atoms: _566  and  _582
REMARK  230  A    between atoms: _567  and  _569
REMARK  231  A    between atoms: _569  and  _570
REMARK  232  A    between atoms: _570  and  _571
REMARK  233  A    between atoms: _575  and  _577
REMARK  234  A    between atoms: _577  and  _578
REMARK  235  A    between atoms: _577  and  _585
REMARK  236  A    between atoms: _578  and  _579
REMARK  237  A    between atoms: _579  and  _580
REMARK  238  A    between atoms: _580  and  _581
REMARK  239  A    between atoms: _581  and  _582
REMARK  240  A    between atoms: _587  and  _589
REMARK  241  A    between atoms: _589  and  _590
REMARK  242  A    between atoms: _589  and  _592
REMARK  243  A    between atoms: _592  and  _593
REMARK  244  A    between atoms: _596  and  _598
REMARK  245  A    between atoms: _598  and  _599
REMARK  246  A    between atoms: _601  and  _603
REMARK  247  A    between atoms: _603  and  _604
REMARK  248  A    between atoms: _607  and  _609
REMARK  249  A    between atoms: _609  and  _610
REMARK  250  A    between atoms: _609  and  _612
REMARK  251  A    between atoms: _612  and  _613
REMARK  252  A    between atoms: _618  and  _619
REMARK                            x       y       z     vdW  Elec       q    Type
REMARK                         _______ _______ _______ _____ _____    ______ ____
ROOT
ATOM      1  O   HOH     1      28.002  27.479  27.656  0.00  0.00    +0.000 OA
ENDROOT
TORSDOF 0
REMARK  Name = ../refined-set-2016/2qrh/2qrh_pocket.pdb
REMARK  252 active torsions:
REMARK  status: ('A' for Active; 'I' for Inactive)
REMARK    1  A    between atoms: _1  and  _3
REMARK    2  A    between atoms: _3  and  _4
REMARK    3  A    between atoms: _3  and  _6
REMARK    4  A    between atoms: _6  and  _7
REMARK    5  A    between atoms: _12  and  _13
REMARK    6  A    between atoms: _15  and  _17
REMARK    7  A    between atoms: _17  and  _18
REMARK    8  A    between atoms: _17  and  _20
REMARK    9  A    between atoms: _20  and  _21
REMARK   10  A    between atoms: _21  and  _22
REMARK   11  A    between atoms: _25  and  _27
REMARK   12  A    between atoms: _27  and  _28
REMARK   13  A    between atoms: _30  and  _32
REMARK   14  A    between atoms: _32  and  _33
REMARK   15  A    between atoms: _32  and  _35
REMARK   16  A    between atoms: _35  and  _36
REMARK   17  A    between atoms: _41  and  _43
REMARK   18  A    between atoms: _43  and  _44
REMARK   19  A    between atoms: _46  and  _48
REMARK   20  A    between atoms: _48  and  _49
REMARK   21  A    between atoms: _51  and  _53
REMARK   22  A    between atoms: _53  and  _54
REMARK   23  A    between atoms: _53  and  _56
REMARK   24  A    between atoms: _56  and  _57
REMARK   25  A    between atoms: _60  and  _62
REMARK   26  A    between atoms: _62  and  _63
REMARK   27  A    between atoms: _65  and  _67
REMARK   28  A    between atoms: _67  and  _68
REMARK   29  A    between atoms: _67  and  _70
REMARK   30  A    between atoms: _70  and  _71
REMARK   31  A    between atoms: _71  and  _72
REMARK   32  A    between atoms: _72  and  _73
REMARK   33  A    between atoms: _82  and  _84
REMARK   34  A    between atoms: _84  and  _85
REMARK   35  A    between atoms: _84  and  _87
REMARK   36  A    between atoms: _87  and  _88
REMARK   37  A    between atoms: _91  and  _93
REMARK   38  A    between atoms: _93  and  _94
REMARK   39  A    between atoms: _97  and  _99
REMARK   40  A    between atoms: _99  and  _100
REMARK   41  A    between atoms: _99  and  _102
REMARK   42  A    between atoms: _102  and  _103
REMARK   43  A    between atoms: _109  and  _111
REMARK   44  A    between atoms: _111  and  _112
REMARK   45  A    between atoms: _111  and  _114
REMARK   46  A    between atoms: _114  and  _115
REMARK   47  A    between atoms: _120  and  _121
REMARK   48  A    between atoms: _124  and  _125
REMARK   49  A    between atoms: _130  and  _132
REMARK   50  A    between atoms: _132  and  _133
REMARK   51  A    between atoms: _132  and  _135
REMARK   52  A    between atoms: _135  and  _136
REMARK   53  A    between atoms: _141  and  _143
REMARK   54  A    between atoms: _143  and  _144
REMARK   55  A    between atoms: _143  and  _146
REMARK   56  A    between atoms: _146  and  _147
REMARK   57  A    between atoms: _150  and  _152
REMARK   58  A    between atoms: _152  and  _153
REMARK   59  A    between atoms: _152  and  _155
REMARK   60  A    between atoms: _155  and  _156
REMARK   61  A    between atoms: _161  and  _163
REMARK   62  A    between atoms: _163  and  _164
REMARK   63  A    between atoms: _163  and  _166
REMARK   64  A    between atoms: _166  and  _167
REMARK   65  A    between atoms: _173  and  _175
REMARK   66  A    between atoms: _175  and  _176
REMARK   67  A    between atoms: _175  and  _178
REMARK   68  A    between atoms: _178  and  _179
REMARK   69  A    between atoms: _185  and  _187
REMARK   70  A    between atoms: _187  and  _188
REMARK   71  A    between atoms: _187  and  _190
REMARK   72  A    between atoms: _190  and  _191
REMARK   73  A    between atoms: _191  and  _192
REMARK   74  A    between atoms: _195  and  _197
REMARK   75  A    between atoms: _197  and  _198
REMARK   76  A    between atoms: _197  and  _200
REMARK   77  A    between atoms: _200  and  _201
REMARK   78  A    between atoms: _201  and  _202
REMARK   79  A    between atoms: _202  and  _203
REMARK   80  A    between atoms: _212  and  _214
REMARK   81  A    between atoms: _214  and  _215
REMARK   82  A    between atoms: _214  and  _217
REMARK   83  A    between atoms: _217  and  _218
REMARK   84  A    between atoms: _223  and  _225
REMARK   85  A    between atoms: _225  and  _226
REMARK   86  A    between atoms: _225  and  _228
REMARK   87  A    between atoms: _228  and  _229
REMARK   88  A    between atoms: _232  and  _234
REMARK   89  A    between atoms: _234  and  _235
REMARK   90  A    between atoms: _234  and  _237
REMARK   91  A    between atoms: _237  and  _238
REMARK   92  A    between atoms: _241  and  _243
REMARK   93  A    between atoms: _243  and  _244
REMARK   94  A    between atoms: _243  and  _246
REMARK   95  A    between atoms: _246  and  _247
REMARK   96  A    between atoms: _252  and  _254
REMARK   97  A    between atoms: _254  and  _255
REMARK   98  A    between atoms: _254  and  _257
REMARK   99  A    between atoms: _257  and  _258
REMARK  100  A    between atoms: _261  and  _263
REMARK  101  A    between atoms: _263  and  _264
REMARK  102  A    between atoms: _263  and  _266
REMARK  103  A    between atoms: _266  and  _267
REMARK  104  A    between atoms: _272  and  _274
REMARK  105  A    between atoms: _274  and  _275
REMARK  106  A    between atoms: _274  and  _277
REMARK  107  A    between atoms: _277  and  _278
REMARK  108  A    between atoms: _283  and  _285
REMARK  109  A    between atoms: _285  and  _286
REMARK  110  A    between atoms: _285  and  _288
REMARK  111  A    between atoms: _288  and  _289
REMARK  112  A    between atoms: _292  and  _294
REMARK  113  A    between atoms: _294  and  _295
REMARK  114  A    between atoms: _294  and  _297
REMARK  115  A    between atoms: _300  and  _302
REMARK  116  A    between atoms: _302  and  _303
REMARK  117  A    between atoms: _302  and  _305
REMARK  118  A    between atoms: _305  and  _306
REMARK  119  A    between atoms: _309  and  _311
REMARK  120  A    between atoms: _311  and  _312
REMARK  121  A    between atoms: _311  and  _314
REMARK  122  A    between atoms: _314  and  _315
REMARK  123  A    between atoms: _315  and  _316
REMARK  124  A    between atoms: _319  and  _321
REMARK  125  A    between atoms: _321  and  _322
REMARK  126  A    between atoms: _325  and  _327
REMARK  127  A    between atoms: _327  and  _328
REMARK  128  A    between atoms: _327  and  _330
REMARK  129  A    between atoms: _330  and  _331
REMARK  130  A    between atoms: _334  and  _336
REMARK  131  A    between atoms: _336  and  _337
REMARK  132  A    between atoms: _336  and  _339
REMARK  133  A    between atoms: _339  and  _340
REMARK  134  A    between atoms: _340  and  _341
REMARK  135  A    between atoms: _344  and  _346
REMARK  136  A    between atoms: _346  and  _347
REMARK  137  A    between atoms: _346  and  _349
REMARK  138  A    between atoms: _349  and  _350
REMARK  139  A    between atoms: _355  and  _357
REMARK  140  A    between atoms: _357  and  _358
REMARK  141  A    between atoms: _360  and  _362
REMARK  142  A    between atoms: _362  and  _363
REMARK  143  A    between atoms: _362  and  _365
REMARK  144  A    between atoms: _368  and  _370
REMARK  145  A    between atoms: _370  and  _371
REMARK  146  A    between atoms: _374  and  _376
REMARK  147  A    between atoms: _376  and  _377
REMARK  148  A    between atoms: _376  and  _379
REMARK  149  A    between atoms: _379  and  _380
REMARK  150  A    between atoms: _385  and  _387
REMARK  151  A    between atoms: _387  and  _388
REMARK  152  A    between atoms: _387  and  _390
REMARK  153  A    between atoms: _390  and  _391
REMARK  154  A    between atoms: _391  and  _392
REMARK  155  A    between atoms: _392  and  _393
REMARK  156  A    between atoms: _393  and  _394
REMARK  157  A    between atoms: _398  and  _400
REMARK  158  A    between atoms: _400  and  _401
REMARK  159  A    between atoms: _400  and  _403
REMARK  160  A    between atoms: _403  and  _404
REMARK  161  A    between atoms: _407  and  _409
REMARK  162  A    between atoms: _409  and  _410
REMARK  163  A    between atoms: _409  and  _412
REMARK  164  A    between atoms: _412  and  _413
REMARK  165  A    between atoms: _418  and  _420
REMARK  166  A    between atoms: _420  and  _421
REMARK  167  A    between atoms: _423  and  _425
REMARK  168  A    between atoms: _425  and  _426
REMARK  169  A    between atoms: _425  and  _428
REMARK  170  A    between atoms: _428  and  _429
REMARK  171  A    between atoms: _429  and  _430
REMARK  172  A    between atoms: _430  and  _431
REMARK  173  A    between atoms: _431  and  _432
REMARK  174  A    between atoms: _436  and  _438
REMARK  175  A    between atoms: _438  and  _439
REMARK  176  A    between atoms: _438  and  _441
REMARK  177  A    between atoms: _441  and  _442
REMARK  178  A    between atoms: _442  and  _443
REMARK  179  A    between atoms: _443  and  _444
REMARK  180  A    between atoms: _453  and  _455
REMARK  181  A    between atoms: _455  and  _456
REMARK  182  A    between atoms: _455  and  _458
REMARK  183  A    between atoms: _458  and  _459
REMARK  184  A    between atoms: _464  and  _465
REMARK  185  A    between atoms: _467  and  _469
REMARK  186  A    between atoms: _469  and  _470
REMARK  187  A    between atoms: _469  and  _472
REMARK  188  A    between atoms: _472  and  _473
REMARK  189  A    between atoms: _473  and  _474
REMARK  190  A    between atoms: _474  and  _475
REMARK  191  A    between atoms: _475  and  _476
REMARK  192  A    between atoms: _480  and  _482
REMARK  193  A    between atoms: _482  and  _483
REMARK  194  A    between atoms: _482  and  _485
REMARK  195  A    between atoms: _485  and  _486
REMARK  196  A    between atoms: _488  and  _490
REMARK  197  A    between atoms: _490  and  _491
REMARK  198  A    between atoms: _490  and  _493
REMARK  199  A    between atoms: _493  and  _494
REMARK  200  A    between atoms: _497  and  _499
REMARK  201  A    between atoms: _499  and  _500
REMARK  202  A    between atoms: _499  and  _502
REMARK  203  A    between atoms: _502  and  _503
REMARK  204  A    between atoms: _503  and  _504
REMARK  205  A    between atoms: _507  and  _509
REMARK  206  A    between atoms: _509  and  _510
REMARK  207  A    between atoms: _513  and  _515
REMARK  208  A    between atoms: _515  and  _516
REMARK  209  A    between atoms: _515  and  _518
REMARK  210  A    between atoms: _518  and  _519
REMARK  211  A    between atoms: _521  and  _523
REMARK  212  A    between atoms: _523  and  _524
REMARK  213  A    between atoms: _526  and  _528
REMARK  214  A    between atoms: _528  and  _529
REMARK  215  A    between atoms: _528  and  _531
REMARK  216  A    between atoms: _531  and  _532
REMARK  217  A    between atoms: _535  and  _537
REMARK  218  A    between atoms: _537  and  _538
REMARK  219  A    between atoms: _540  and  _542
REMARK  220  A    between atoms: _542  and  _543
REMARK  221  A    between atoms: _542  and  _545
REMARK  222  A    between atoms: _545  and  _546
REMARK  223  A    between atoms: _551  and  _553
REMARK  224  A    between atoms: _553  and  _554
REMARK  225  A    between atoms: _553  and  _556
REMARK  226  A    between atoms: _556  and  _557
REMARK  227  A    between atoms: _557  and  _558
REMARK  228  A    between atoms: _565  and  _566
REMARK  229  A    between atoms: _566  and  _582
REMARK  230  A    between atoms: _567  and  _569
REMARK  231  A    between atoms: _569  and  _570
REMARK  232  A    between atoms: _570  and  _571
REMARK  233  A    between atoms: _575  and  _577
REMARK  234  A    between atoms: _577  and  _578
REMARK  235  A    between atoms: _577  and  _585
REMARK  236  A    between atoms: _578  and  _579
REMARK  237  A    between atoms: _579  and  _580
REMARK  238  A    between atoms: _580  and  _581
REMARK  239  A    between atoms: _581  and  _582
REMARK  240  A    between atoms: _587  and  _589
REMARK  241  A    between atoms: _589  and  _590
REMARK  242  A    between atoms: _589  and  _592
REMARK  243  A    between atoms: _592  and  _593
REMARK  244  A    between atoms: _596  and  _598
REMARK  245  A    between atoms: _598  and  _599
REMARK  246  A    between atoms: _601  and  _603
REMARK  247  A    between atoms: _603  and  _604
REMARK  248  A    between atoms: _607  and  _609
REMARK  249  A    between atoms: _609  and  _610
REMARK  250  A    between atoms: _609  and  _612
REMARK  251  A    between atoms: _612  and  _613
REMARK  252  A    between atoms: _618  and  _619
REMARK                            x       y       z     vdW  Elec       q    Type
REMARK                         _______ _______ _______ _____ _____    ______ ____
ROOT
ATOM      1  O   HOH     1      26.934  23.560  21.644  0.00  0.00    +0.000 OA
ENDROOT
TORSDOF 0
REMARK  Name = ../refined-set-2016/2qrh/2qrh_pocket.pdb
REMARK  252 active torsions:
REMARK  status: ('A' for Active; 'I' for Inactive)
REMARK    1  A    between atoms: _1  and  _3
REMARK    2  A    between atoms: _3  and  _4
REMARK    3  A    between atoms: _3  and  _6
REMARK    4  A    between atoms: _6  and  _7
REMARK    5  A    between atoms: _12  and  _13
REMARK    6  A    between atoms: _15  and  _17
REMARK    7  A    between atoms: _17  and  _18
REMARK    8  A    between atoms: _17  and  _20
REMARK    9  A    between atoms: _20  and  _21
REMARK   10  A    between atoms: _21  and  _22
REMARK   11  A    between atoms: _25  and  _27
REMARK   12  A    between atoms: _27  and  _28
REMARK   13  A    between atoms: _30  and  _32
REMARK   14  A    between atoms: _32  and  _33
REMARK   15  A    between atoms: _32  and  _35
REMARK   16  A    between atoms: _35  and  _36
REMARK   17  A    between atoms: _41  and  _43
REMARK   18  A    between atoms: _43  and  _44
REMARK   19  A    between atoms: _46  and  _48
REMARK   20  A    between atoms: _48  and  _49
REMARK   21  A    between atoms: _51  and  _53
REMARK   22  A    between atoms: _53  and  _54
REMARK   23  A    between atoms: _53  and  _56
REMARK   24  A    between atoms: _56  and  _57
REMARK   25  A    between atoms: _60  and  _62
REMARK   26  A    between atoms: _62  and  _63
REMARK   27  A    between atoms: _65  and  _67
REMARK   28  A    between atoms: _67  and  _68
REMARK   29  A    between atoms: _67  and  _70
REMARK   30  A    between atoms: _70  and  _71
REMARK   31  A    between atoms: _71  and  _72
REMARK   32  A    between atoms: _72  and  _73
REMARK   33  A    between atoms: _82  and  _84
REMARK   34  A    between atoms: _84  and  _85
REMARK   35  A    between atoms: _84  and  _87
REMARK   36  A    between atoms: _87  and  _88
REMARK   37  A    between atoms: _91  and  _93
REMARK   38  A    between atoms: _93  and  _94
REMARK   39  A    between atoms: _97  and  _99
REMARK   40  A    between atoms: _99  and  _100
REMARK   41  A    between atoms: _99  and  _102
REMARK   42  A    between atoms: _102  and  _103
REMARK   43  A    between atoms: _109  and  _111
REMARK   44  A    between atoms: _111  and  _112
REMARK   45  A    between atoms: _111  and  _114
REMARK   46  A    between atoms: _114  and  _115
REMARK   47  A    between atoms: _120  and  _121
REMARK   48  A    between atoms: _124  and  _125
REMARK   49  A    between atoms: _130  and  _132
REMARK   50  A    between atoms: _132  and  _133
REMARK   51  A    between atoms: _132  and  _135
REMARK   52  A    between atoms: _135  and  _136
REMARK   53  A    between atoms: _141  and  _143
REMARK   54  A    between atoms: _143  and  _144
REMARK   55  A    between atoms: _143  and  _146
REMARK   56  A    between atoms: _146  and  _147
REMARK   57  A    between atoms: _150  and  _152
REMARK   58  A    between atoms: _152  and  _153
REMARK   59  A    between atoms: _152  and  _155
REMARK   60  A    between atoms: _155  and  _156
REMARK   61  A    between atoms: _161  and  _163
REMARK   62  A    between atoms: _163  and  _164
REMARK   63  A    between atoms: _163  and  _166
REMARK   64  A    between atoms: _166  and  _167
REMARK   65  A    between atoms: _173  and  _175
REMARK   66  A    between atoms: _175  and  _176
REMARK   67  A    between atoms: _175  and  _178
REMARK   68  A    between atoms: _178  and  _179
REMARK   69  A    between atoms: _185  and  _187
REMARK   70  A    between atoms: _187  and  _188
REMARK   71  A    between atoms: _187  and  _190
REMARK   72  A    between atoms: _190  and  _191
REMARK   73  A    between atoms: _191  and  _192
REMARK   74  A    between atoms: _195  and  _197
REMARK   75  A    between atoms: _197  and  _198
REMARK   76  A    between atoms: _197  and  _200
REMARK   77  A    between atoms: _200  and  _201
REMARK   78  A    between atoms: _201  and  _202
REMARK   79  A    between atoms: _202  and  _203
REMARK   80  A    between atoms: _212  and  _214
REMARK   81  A    between atoms: _214  and  _215
REMARK   82  A    between atoms: _214  and  _217
REMARK   83  A    between atoms: _217  and  _218
REMARK   84  A    between atoms: _223  and  _225
REMARK   85  A    between atoms: _225  and  _226
REMARK   86  A    between atoms: _225  and  _228
REMARK   87  A    between atoms: _228  and  _229
REMARK   88  A    between atoms: _232  and  _234
REMARK   89  A    between atoms: _234  and  _235
REMARK   90  A    between atoms: _234  and  _237
REMARK   91  A    between atoms: _237  and  _238
REMARK   92  A    between atoms: _241  and  _243
REMARK   93  A    between atoms: _243  and  _244
REMARK   94  A    between atoms: _243  and  _246
REMARK   95  A    between atoms: _246  and  _247
REMARK   96  A    between atoms: _252  and  _254
REMARK   97  A    between atoms: _254  and  _255
REMARK   98  A    between atoms: _254  and  _257
REMARK   99  A    between atoms: _257  and  _258
REMARK  100  A    between atoms: _261  and  _263
REMARK  101  A    between atoms: _263  and  _264
REMARK  102  A    between atoms: _263  and  _266
REMARK  103  A    between atoms: _266  and  _267
REMARK  104  A    between atoms: _272  and  _274
REMARK  105  A    between atoms: _274  and  _275
REMARK  106  A    between atoms: _274  and  _277
REMARK  107  A    between atoms: _277  and  _278
REMARK  108  A    between atoms: _283  and  _285
REMARK  109  A    between atoms: _285  and  _286
REMARK  110  A    between atoms: _285  and  _288
REMARK  111  A    between atoms: _288  and  _289
REMARK  112  A    between atoms: _292  and  _294
REMARK  113  A    between atoms: _294  and  _295
REMARK  114  A    between atoms: _294  and  _297
REMARK  115  A    between atoms: _300  and  _302
REMARK  116  A    between atoms: _302  and  _303
REMARK  117  A    between atoms: _302  and  _305
REMARK  118  A    between atoms: _305  and  _306
REMARK  119  A    between atoms: _309  and  _311
REMARK  120  A    between atoms: _311  and  _312
REMARK  121  A    between atoms: _311  and  _314
REMARK  122  A    between atoms: _314  and  _315
REMARK  123  A    between atoms: _315  and  _316
REMARK  124  A    between atoms: _319  and  _321
REMARK  125  A    between atoms: _321  and  _322
REMARK  126  A    between atoms: _325  and  _327
REMARK  127  A    between atoms: _327  and  _328
REMARK  128  A    between atoms: _327  and  _330
REMARK  129  A    between atoms: _330  and  _331
REMARK  130  A    between atoms: _334  and  _336
REMARK  131  A    between atoms: _336  and  _337
REMARK  132  A    between atoms: _336  and  _339
REMARK  133  A    between atoms: _339  and  _340
REMARK  134  A    between atoms: _340  and  _341
REMARK  135  A    between atoms: _344  and  _346
REMARK  136  A    between atoms: _346  and  _347
REMARK  137  A    between atoms: _346  and  _349
REMARK  138  A    between atoms: _349  and  _350
REMARK  139  A    between atoms: _355  and  _357
REMARK  140  A    between atoms: _357  and  _358
REMARK  141  A    between atoms: _360  and  _362
REMARK  142  A    between atoms: _362  and  _363
REMARK  143  A    between atoms: _362  and  _365
REMARK  144  A    between atoms: _368  and  _370
REMARK  145  A    between atoms: _370  and  _371
REMARK  146  A    between atoms: _374  and  _376
REMARK  147  A    between atoms: _376  and  _377
REMARK  148  A    between atoms: _376  and  _379
REMARK  149  A    between atoms: _379  and  _380
REMARK  150  A    between atoms: _385  and  _387
REMARK  151  A    between atoms: _387  and  _388
REMARK  152  A    between atoms: _387  and  _390
REMARK  153  A    between atoms: _390  and  _391
REMARK  154  A    between atoms: _391  and  _392
REMARK  155  A    between atoms: _392  and  _393
REMARK  156  A    between atoms: _393  and  _394
REMARK  157  A    between atoms: _398  and  _400
REMARK  158  A    between atoms: _400  and  _401
REMARK  159  A    between atoms: _400  and  _403
REMARK  160  A    between atoms: _403  and  _404
REMARK  161  A    between atoms: _407  and  _409
REMARK  162  A    between atoms: _409  and  _410
REMARK  163  A    between atoms: _409  and  _412
REMARK  164  A    between atoms: _412  and  _413
REMARK  165  A    between atoms: _418  and  _420
REMARK  166  A    between atoms: _420  and  _421
REMARK  167  A    between atoms: _423  and  _425
REMARK  168  A    between atoms: _425  and  _426
REMARK  169  A    between atoms: _425  and  _428
REMARK  170  A    between atoms: _428  and  _429
REMARK  171  A    between atoms: _429  and  _430
REMARK  172  A    between atoms: _430  and  _431
REMARK  173  A    between atoms: _431  and  _432
REMARK  174  A    between atoms: _436  and  _438
REMARK  175  A    between atoms: _438  and  _439
REMARK  176  A    between atoms: _438  and  _441
REMARK  177  A    between atoms: _441  and  _442
REMARK  178  A    between atoms: _442  and  _443
REMARK  179  A    between atoms: _443  and  _444
REMARK  180  A    between atoms: _453  and  _455
REMARK  181  A    between atoms: _455  and  _456
REMARK  182  A    between atoms: _455  and  _458
REMARK  183  A    between atoms: _458  and  _459
REMARK  184  A    between atoms: _464  and  _465
REMARK  185  A    between atoms: _467  and  _469
REMARK  186  A    between atoms: _469  and  _470
REMARK  187  A    between atoms: _469  and  _472
REMARK  188  A    between atoms: _472  and  _473
REMARK  189  A    between atoms: _473  and  _474
REMARK  190  A    between atoms: _474  and  _475
REMARK  191  A    between atoms: _475  and  _476
REMARK  192  A    between atoms: _480  and  _482
REMARK  193  A    between atoms: _482  and  _483
REMARK  194  A    between atoms: _482  and  _485
REMARK  195  A    between atoms: _485  and  _486
REMARK  196  A    between atoms: _488  and  _490
REMARK  197  A    between atoms: _490  and  _491
REMARK  198  A    between atoms: _490  and  _493
REMARK  199  A    between atoms: _493  and  _494
REMARK  200  A    between atoms: _497  and  _499
REMARK  201  A    between atoms: _499  and  _500
REMARK  202  A    between atoms: _499  and  _502
REMARK  203  A    between atoms: _502  and  _503
REMARK  204  A    between atoms: _503  and  _504
REMARK  205  A    between atoms: _507  and  _509
REMARK  206  A    between atoms: _509  and  _510
REMARK  207  A    between atoms: _513  and  _515
REMARK  208  A    between atoms: _515  and  _516
REMARK  209  A    between atoms: _515  and  _518
REMARK  210  A    between atoms: _518  and  _519
REMARK  211  A    between atoms: _521  and  _523
REMARK  212  A    between atoms: _523  and  _524
REMARK  213  A    between atoms: _526  and  _528
REMARK  214  A    between atoms: _528  and  _529
REMARK  215  A    between atoms: _528  and  _531
REMARK  216  A    between atoms: _531  and  _532
REMARK  217  A    between atoms: _535  and  _537
REMARK  218  A    between atoms: _537  and  _538
REMARK  219  A    between atoms: _540  and  _542
REMARK  220  A    between atoms: _542  and  _543
REMARK  221  A    between atoms: _542  and  _545
REMARK  222  A    between atoms: _545  and  _546
REMARK  223  A    between atoms: _551  and  _553
REMARK  224  A    between atoms: _553  and  _554
REMARK  225  A    between atoms: _553  and  _556
REMARK  226  A    between atoms: _556  and  _557
REMARK  227  A    between atoms: _557  and  _558
REMARK  228  A    between atoms: _565  and  _566
REMARK  229  A    between atoms: _566  and  _582
REMARK  230  A    between atoms: _567  and  _569
REMARK  231  A    between atoms: _569  and  _570
REMARK  232  A    between atoms: _570  and  _571
REMARK  233  A    between atoms: _575  and  _577
REMARK  234  A    between atoms: _577  and  _578
REMARK  235  A    between atoms: _577  and  _585
REMARK  236  A    between atoms: _578  and  _579
REMARK  237  A    between atoms: _579  and  _580
REMARK  238  A    between atoms: _580  and  _581
REMARK  239  A    between atoms: _581  and  _582
REMARK  240  A    between atoms: _587  and  _589
REMARK  241  A    between atoms: _589  and  _590
REMARK  242  A    between atoms: _589  and  _592
REMARK  243  A    between atoms: _592  and  _593
REMARK  244  A    between atoms: _596  and  _598
REMARK  245  A    between atoms: _598  and  _599
REMARK  246  A    between atoms: _601  and  _603
REMARK  247  A    between atoms: _603  and  _604
REMARK  248  A    between atoms: _607  and  _609
REMARK  249  A    between atoms: _609  and  _610
REMARK  250  A    between atoms: _609  and  _612
REMARK  251  A    between atoms: _612  and  _613
REMARK  252  A    between atoms: _618  and  _619
REMARK                            x       y       z     vdW  Elec       q    Type
REMARK                         _______ _______ _______ _____ _____    ______ ____
ROOT
ATOM      1  O   HOH     1      35.263  12.815  30.984  0.00  0.00    +0.000 OA
ENDROOT
TORSDOF 0
REMARK  Name = ../refined-set-2016/2qrh/2qrh_pocket.pdb
REMARK  252 active torsions:
REMARK  status: ('A' for Active; 'I' for Inactive)
REMARK    1  A    between atoms: _1  and  _3
REMARK    2  A    between atoms: _3  and  _4
REMARK    3  A    between atoms: _3  and  _6
REMARK    4  A    between atoms: _6  and  _7
REMARK    5  A    between atoms: _12  and  _13
REMARK    6  A    between atoms: _15  and  _17
REMARK    7  A    between atoms: _17  and  _18
REMARK    8  A    between atoms: _17  and  _20
REMARK    9  A    between atoms: _20  and  _21
REMARK   10  A    between atoms: _21  and  _22
REMARK   11  A    between atoms: _25  and  _27
REMARK   12  A    between atoms: _27  and  _28
REMARK   13  A    between atoms: _30  and  _32
REMARK   14  A    between atoms: _32  and  _33
REMARK   15  A    between atoms: _32  and  _35
REMARK   16  A    between atoms: _35  and  _36
REMARK   17  A    between atoms: _41  and  _43
REMARK   18  A    between atoms: _43  and  _44
REMARK   19  A    between atoms: _46  and  _48
REMARK   20  A    between atoms: _48  and  _49
REMARK   21  A    between atoms: _51  and  _53
REMARK   22  A    between atoms: _53  and  _54
REMARK   23  A    between atoms: _53  and  _56
REMARK   24  A    between atoms: _56  and  _57
REMARK   25  A    between atoms: _60  and  _62
REMARK   26  A    between atoms: _62  and  _63
REMARK   27  A    between atoms: _65  and  _67
REMARK   28  A    between atoms: _67  and  _68
REMARK   29  A    between atoms: _67  and  _70
REMARK   30  A    between atoms: _70  and  _71
REMARK   31  A    between atoms: _71  and  _72
REMARK   32  A    between atoms: _72  and  _73
REMARK   33  A    between atoms: _82  and  _84
REMARK   34  A    between atoms: _84  and  _85
REMARK   35  A    between atoms: _84  and  _87
REMARK   36  A    between atoms: _87  and  _88
REMARK   37  A    between atoms: _91  and  _93
REMARK   38  A    between atoms: _93  and  _94
REMARK   39  A    between atoms: _97  and  _99
REMARK   40  A    between atoms: _99  and  _100
REMARK   41  A    between atoms: _99  and  _102
REMARK   42  A    between atoms: _102  and  _103
REMARK   43  A    between atoms: _109  and  _111
REMARK   44  A    between atoms: _111  and  _112
REMARK   45  A    between atoms: _111  and  _114
REMARK   46  A    between atoms: _114  and  _115
REMARK   47  A    between atoms: _120  and  _121
REMARK   48  A    between atoms: _124  and  _125
REMARK   49  A    between atoms: _130  and  _132
REMARK   50  A    between atoms: _132  and  _133
REMARK   51  A    between atoms: _132  and  _135
REMARK   52  A    between atoms: _135  and  _136
REMARK   53  A    between atoms: _141  and  _143
REMARK   54  A    between atoms: _143  and  _144
REMARK   55  A    between atoms: _143  and  _146
REMARK   56  A    between atoms: _146  and  _147
REMARK   57  A    between atoms: _150  and  _152
REMARK   58  A    between atoms: _152  and  _153
REMARK   59  A    between atoms: _152  and  _155
REMARK   60  A    between atoms: _155  and  _156
REMARK   61  A    between atoms: _161  and  _163
REMARK   62  A    between atoms: _163  and  _164
REMARK   63  A    between atoms: _163  and  _166
REMARK   64  A    between atoms: _166  and  _167
REMARK   65  A    between atoms: _173  and  _175
REMARK   66  A    between atoms: _175  and  _176
REMARK   67  A    between atoms: _175  and  _178
REMARK   68  A    between atoms: _178  and  _179
REMARK   69  A    between atoms: _185  and  _187
REMARK   70  A    between atoms: _187  and  _188
REMARK   71  A    between atoms: _187  and  _190
REMARK   72  A    between atoms: _190  and  _191
REMARK   73  A    between atoms: _191  and  _192
REMARK   74  A    between atoms: _195  and  _197
REMARK   75  A    between atoms: _197  and  _198
REMARK   76  A    between atoms: _197  and  _200
REMARK   77  A    between atoms: _200  and  _201
REMARK   78  A    between atoms: _201  and  _202
REMARK   79  A    between atoms: _202  and  _203
REMARK   80  A    between atoms: _212  and  _214
REMARK   81  A    between atoms: _214  and  _215
REMARK   82  A    between atoms: _214  and  _217
REMARK   83  A    between atoms: _217  and  _218
REMARK   84  A    between atoms: _223  and  _225
REMARK   85  A    between atoms: _225  and  _226
REMARK   86  A    between atoms: _225  and  _228
REMARK   87  A    between atoms: _228  and  _229
REMARK   88  A    between atoms: _232  and  _234
REMARK   89  A    between atoms: _234  and  _235
REMARK   90  A    between atoms: _234  and  _237
REMARK   91  A    between atoms: _237  and  _238
REMARK   92  A    between atoms: _241  and  _243
REMARK   93  A    between atoms: _243  and  _244
REMARK   94  A    between atoms: _243  and  _246
REMARK   95  A    between atoms: _246  and  _247
REMARK   96  A    between atoms: _252  and  _254
REMARK   97  A    between atoms: _254  and  _255
REMARK   98  A    between atoms: _254  and  _257
REMARK   99  A    between atoms: _257  and  _258
REMARK  100  A    between atoms: _261  and  _263
REMARK  101  A    between atoms: _263  and  _264
REMARK  102  A    between atoms: _263  and  _266
REMARK  103  A    between atoms: _266  and  _267
REMARK  104  A    between atoms: _272  and  _274
REMARK  105  A    between atoms: _274  and  _275
REMARK  106  A    between atoms: _274  and  _277
REMARK  107  A    between atoms: _277  and  _278
REMARK  108  A    between atoms: _283  and  _285
REMARK  109  A    between atoms: _285  and  _286
REMARK  110  A    between atoms: _285  and  _288
REMARK  111  A    between atoms: _288  and  _289
REMARK  112  A    between atoms: _292  and  _294
REMARK  113  A    between atoms: _294  and  _295
REMARK  114  A    between atoms: _294  and  _297
REMARK  115  A    between atoms: _300  and  _302
REMARK  116  A    between atoms: _302  and  _303
REMARK  117  A    between atoms: _302  and  _305
REMARK  118  A    between atoms: _305  and  _306
REMARK  119  A    between atoms: _309  and  _311
REMARK  120  A    between atoms: _311  and  _312
REMARK  121  A    between atoms: _311  and  _314
REMARK  122  A    between atoms: _314  and  _315
REMARK  123  A    between atoms: _315  and  _316
REMARK  124  A    between atoms: _319  and  _321
REMARK  125  A    between atoms: _321  and  _322
REMARK  126  A    between atoms: _325  and  _327
REMARK  127  A    between atoms: _327  and  _328
REMARK  128  A    between atoms: _327  and  _330
REMARK  129  A    between atoms: _330  and  _331
REMARK  130  A    between atoms: _334  and  _336
REMARK  131  A    between atoms: _336  and  _337
REMARK  132  A    between atoms: _336  and  _339
REMARK  133  A    between atoms: _339  and  _340
REMARK  134  A    between atoms: _340  and  _341
REMARK  135  A    between atoms: _344  and  _346
REMARK  136  A    between atoms: _346  and  _347
REMARK  137  A    between atoms: _346  and  _349
REMARK  138  A    between atoms: _349  and  _350
REMARK  139  A    between atoms: _355  and  _357
REMARK  140  A    between atoms: _357  and  _358
REMARK  141  A    between atoms: _360  and  _362
REMARK  142  A    between atoms: _362  and  _363
REMARK  143  A    between atoms: _362  and  _365
REMARK  144  A    between atoms: _368  and  _370
REMARK  145  A    between atoms: _370  and  _371
REMARK  146  A    between atoms: _374  and  _376
REMARK  147  A    between atoms: _376  and  _377
REMARK  148  A    between atoms: _376  and  _379
REMARK  149  A    between atoms: _379  and  _380
REMARK  150  A    between atoms: _385  and  _387
REMARK  151  A    between atoms: _387  and  _388
REMARK  152  A    between atoms: _387  and  _390
REMARK  153  A    between atoms: _390  and  _391
REMARK  154  A    between atoms: _391  and  _392
REMARK  155  A    between atoms: _392  and  _393
REMARK  156  A    between atoms: _393  and  _394
REMARK  157  A    between atoms: _398  and  _400
REMARK  158  A    between atoms: _400  and  _401
REMARK  159  A    between atoms: _400  and  _403
REMARK  160  A    between atoms: _403  and  _404
REMARK  161  A    between atoms: _407  and  _409
REMARK  162  A    between atoms: _409  and  _410
REMARK  163  A    between atoms: _409  and  _412
REMARK  164  A    between atoms: _412  and  _413
REMARK  165  A    between atoms: _418  and  _420
REMARK  166  A    between atoms: _420  and  _421
REMARK  167  A    between atoms: _423  and  _425
REMARK  168  A    between atoms: _425  and  _426
REMARK  169  A    between atoms: _425  and  _428
REMARK  170  A    between atoms: _428  and  _429
REMARK  171  A    between atoms: _429  and  _430
REMARK  172  A    between atoms: _430  and  _431
REMARK  173  A    between atoms: _431  and  _432
REMARK  174  A    between atoms: _436  and  _438
REMARK  175  A    between atoms: _438  and  _439
REMARK  176  A    between atoms: _438  and  _441
REMARK  177  A    between atoms: _441  and  _442
REMARK  178  A    between atoms: _442  and  _443
REMARK  179  A    between atoms: _443  and  _444
REMARK  180  A    between atoms: _453  and  _455
REMARK  181  A    between atoms: _455  and  _456
REMARK  182  A    between atoms: _455  and  _458
REMARK  183  A    between atoms: _458  and  _459
REMARK  184  A    between atoms: _464  and  _465
REMARK  185  A    between atoms: _467  and  _469
REMARK  186  A    between atoms: _469  and  _470
REMARK  187  A    between atoms: _469  and  _472
REMARK  188  A    between atoms: _472  and  _473
REMARK  189  A    between atoms: _473  and  _474
REMARK  190  A    between atoms: _474  and  _475
REMARK  191  A    between atoms: _475  and  _476
REMARK  192  A    between atoms: _480  and  _482
REMARK  193  A    between atoms: _482  and  _483
REMARK  194  A    between atoms: _482  and  _485
REMARK  195  A    between atoms: _485  and  _486
REMARK  196  A    between atoms: _488  and  _490
REMARK  197  A    between atoms: _490  and  _491
REMARK  198  A    between atoms: _490  and  _493
REMARK  199  A    between atoms: _493  and  _494
REMARK  200  A    between atoms: _497  and  _499
REMARK  201  A    between atoms: _499  and  _500
REMARK  202  A    between atoms: _499  and  _502
REMARK  203  A    between atoms: _502  and  _503
REMARK  204  A    between atoms: _503  and  _504
REMARK  205  A    between atoms: _507  and  _509
REMARK  206  A    between atoms: _509  and  _510
REMARK  207  A    between atoms: _513  and  _515
REMARK  208  A    between atoms: _515  and  _516
REMARK  209  A    between atoms: _515  and  _518
REMARK  210  A    between atoms: _518  and  _519
REMARK  211  A    between atoms: _521  and  _523
REMARK  212  A    between atoms: _523  and  _524
REMARK  213  A    between atoms: _526  and  _528
REMARK  214  A    between atoms: _528  and  _529
REMARK  215  A    between atoms: _528  and  _531
REMARK  216  A    between atoms: _531  and  _532
REMARK  217  A    between atoms: _535  and  _537
REMARK  218  A    between atoms: _537  and  _538
REMARK  219  A    between atoms: _540  and  _542
REMARK  220  A    between atoms: _542  and  _543
REMARK  221  A    between atoms: _542  and  _545
REMARK  222  A    between atoms: _545  and  _546
REMARK  223  A    between atoms: _551  and  _553
REMARK  224  A    between atoms: _553  and  _554
REMARK  225  A    between atoms: _553  and  _556
REMARK  226  A    between atoms: _556  and  _557
REMARK  227  A    between atoms: _557  and  _558
REMARK  228  A    between atoms: _565  and  _566
REMARK  229  A    between atoms: _566  and  _582
REMARK  230  A    between atoms: _567  and  _569
REMARK  231  A    between atoms: _569  and  _570
REMARK  232  A    between atoms: _570  and  _571
REMARK  233  A    between atoms: _575  and  _577
REMARK  234  A    between atoms: _577  and  _578
REMARK  235  A    between atoms: _577  and  _585
REMARK  236  A    between atoms: _578  and  _579
REMARK  237  A    between atoms: _579  and  _580
REMARK  238  A    between atoms: _580  and  _581
REMARK  239  A    between atoms: _581  and  _582
REMARK  240  A    between atoms: _587  and  _589
REMARK  241  A    between atoms: _589  and  _590
REMARK  242  A    between atoms: _589  and  _592
REMARK  243  A    between atoms: _592  and  _593
REMARK  244  A    between atoms: _596  and  _598
REMARK  245  A    between atoms: _598  and  _599
REMARK  246  A    between atoms: _601  and  _603
REMARK  247  A    between atoms: _603  and  _604
REMARK  248  A    between atoms: _607  and  _609
REMARK  249  A    between atoms: _609  and  _610
REMARK  250  A    between atoms: _609  and  _612
REMARK  251  A    between atoms: _612  and  _613
REMARK  252  A    between atoms: _618  and  _619
REMARK                            x       y       z     vdW  Elec       q    Type
REMARK                         _______ _______ _______ _____ _____    ______ ____
ROOT
ATOM      1  O   HOH     1      36.726  19.446  36.955  0.00  0.00    +0.000 OA
ENDROOT
TORSDOF 0
REMARK  Name = ../refined-set-2016/2qrh/2qrh_pocket.pdb
REMARK  252 active torsions:
REMARK  status: ('A' for Active; 'I' for Inactive)
REMARK    1  A    between atoms: _1  and  _3
REMARK    2  A    between atoms: _3  and  _4
REMARK    3  A    between atoms: _3  and  _6
REMARK    4  A    between atoms: _6  and  _7
REMARK    5  A    between atoms: _12  and  _13
REMARK    6  A    between atoms: _15  and  _17
REMARK    7  A    between atoms: _17  and  _18
REMARK    8  A    between atoms: _17  and  _20
REMARK    9  A    between atoms: _20  and  _21
REMARK   10  A    between atoms: _21  and  _22
REMARK   11  A    between atoms: _25  and  _27
REMARK   12  A    between atoms: _27  and  _28
REMARK   13  A    between atoms: _30  and  _32
REMARK   14  A    between atoms: _32  and  _33
REMARK   15  A    between atoms: _32  and  _35
REMARK   16  A    between atoms: _35  and  _36
REMARK   17  A    between atoms: _41  and  _43
REMARK   18  A    between atoms: _43  and  _44
REMARK   19  A    between atoms: _46  and  _48
REMARK   20  A    between atoms: _48  and  _49
REMARK   21  A    between atoms: _51  and  _53
REMARK   22  A    between atoms: _53  and  _54
REMARK   23  A    between atoms: _53  and  _56
REMARK   24  A    between atoms: _56  and  _57
REMARK   25  A    between atoms: _60  and  _62
REMARK   26  A    between atoms: _62  and  _63
REMARK   27  A    between atoms: _65  and  _67
REMARK   28  A    between atoms: _67  and  _68
REMARK   29  A    between atoms: _67  and  _70
REMARK   30  A    between atoms: _70  and  _71
REMARK   31  A    between atoms: _71  and  _72
REMARK   32  A    between atoms: _72  and  _73
REMARK   33  A    between atoms: _82  and  _84
REMARK   34  A    between atoms: _84  and  _85
REMARK   35  A    between atoms: _84  and  _87
REMARK   36  A    between atoms: _87  and  _88
REMARK   37  A    between atoms: _91  and  _93
REMARK   38  A    between atoms: _93  and  _94
REMARK   39  A    between atoms: _97  and  _99
REMARK   40  A    between atoms: _99  and  _100
REMARK   41  A    between atoms: _99  and  _102
REMARK   42  A    between atoms: _102  and  _103
REMARK   43  A    between atoms: _109  and  _111
REMARK   44  A    between atoms: _111  and  _112
REMARK   45  A    between atoms: _111  and  _114
REMARK   46  A    between atoms: _114  and  _115
REMARK   47  A    between atoms: _120  and  _121
REMARK   48  A    between atoms: _124  and  _125
REMARK   49  A    between atoms: _130  and  _132
REMARK   50  A    between atoms: _132  and  _133
REMARK   51  A    between atoms: _132  and  _135
REMARK   52  A    between atoms: _135  and  _136
REMARK   53  A    between atoms: _141  and  _143
REMARK   54  A    between atoms: _143  and  _144
REMARK   55  A    between atoms: _143  and  _146
REMARK   56  A    between atoms: _146  and  _147
REMARK   57  A    between atoms: _150  and  _152
REMARK   58  A    between atoms: _152  and  _153
REMARK   59  A    between atoms: _152  and  _155
REMARK   60  A    between atoms: _155  and  _156
REMARK   61  A    between atoms: _161  and  _163
REMARK   62  A    between atoms: _163  and  _164
REMARK   63  A    between atoms: _163  and  _166
REMARK   64  A    between atoms: _166  and  _167
REMARK   65  A    between atoms: _173  and  _175
REMARK   66  A    between atoms: _175  and  _176
REMARK   67  A    between atoms: _175  and  _178
REMARK   68  A    between atoms: _178  and  _179
REMARK   69  A    between atoms: _185  and  _187
REMARK   70  A    between atoms: _187  and  _188
REMARK   71  A    between atoms: _187  and  _190
REMARK   72  A    between atoms: _190  and  _191
REMARK   73  A    between atoms: _191  and  _192
REMARK   74  A    between atoms: _195  and  _197
REMARK   75  A    between atoms: _197  and  _198
REMARK   76  A    between atoms: _197  and  _200
REMARK   77  A    between atoms: _200  and  _201
REMARK   78  A    between atoms: _201  and  _202
REMARK   79  A    between atoms: _202  and  _203
REMARK   80  A    between atoms: _212  and  _214
REMARK   81  A    between atoms: _214  and  _215
REMARK   82  A    between atoms: _214  and  _217
REMARK   83  A    between atoms: _217  and  _218
REMARK   84  A    between atoms: _223  and  _225
REMARK   85  A    between atoms: _225  and  _226
REMARK   86  A    between atoms: _225  and  _228
REMARK   87  A    between atoms: _228  and  _229
REMARK   88  A    between atoms: _232  and  _234
REMARK   89  A    between atoms: _234  and  _235
REMARK   90  A    between atoms: _234  and  _237
REMARK   91  A    between atoms: _237  and  _238
REMARK   92  A    between atoms: _241  and  _243
REMARK   93  A    between atoms: _243  and  _244
REMARK   94  A    between atoms: _243  and  _246
REMARK   95  A    between atoms: _246  and  _247
REMARK   96  A    between atoms: _252  and  _254
REMARK   97  A    between atoms: _254  and  _255
REMARK   98  A    between atoms: _254  and  _257
REMARK   99  A    between atoms: _257  and  _258
REMARK  100  A    between atoms: _261  and  _263
REMARK  101  A    between atoms: _263  and  _264
REMARK  102  A    between atoms: _263  and  _266
REMARK  103  A    between atoms: _266  and  _267
REMARK  104  A    between atoms: _272  and  _274
REMARK  105  A    between atoms: _274  and  _275
REMARK  106  A    between atoms: _274  and  _277
REMARK  107  A    between atoms: _277  and  _278
REMARK  108  A    between atoms: _283  and  _285
REMARK  109  A    between atoms: _285  and  _286
REMARK  110  A    between atoms: _285  and  _288
REMARK  111  A    between atoms: _288  and  _289
REMARK  112  A    between atoms: _292  and  _294
REMARK  113  A    between atoms: _294  and  _295
REMARK  114  A    between atoms: _294  and  _297
REMARK  115  A    between atoms: _300  and  _302
REMARK  116  A    between atoms: _302  and  _303
REMARK  117  A    between atoms: _302  and  _305
REMARK  118  A    between atoms: _305  and  _306
REMARK  119  A    between atoms: _309  and  _311
REMARK  120  A    between atoms: _311  and  _312
REMARK  121  A    between atoms: _311  and  _314
REMARK  122  A    between atoms: _314  and  _315
REMARK  123  A    between atoms: _315  and  _316
REMARK  124  A    between atoms: _319  and  _321
REMARK  125  A    between atoms: _321  and  _322
REMARK  126  A    between atoms: _325  and  _327
REMARK  127  A    between atoms: _327  and  _328
REMARK  128  A    between atoms: _327  and  _330
REMARK  129  A    between atoms: _330  and  _331
REMARK  130  A    between atoms: _334  and  _336
REMARK  131  A    between atoms: _336  and  _337
REMARK  132  A    between atoms: _336  and  _339
REMARK  133  A    between atoms: _339  and  _340
REMARK  134  A    between atoms: _340  and  _341
REMARK  135  A    between atoms: _344  and  _346
REMARK  136  A    between atoms: _346  and  _347
REMARK  137  A    between atoms: _346  and  _349
REMARK  138  A    between atoms: _349  and  _350
REMARK  139  A    between atoms: _355  and  _357
REMARK  140  A    between atoms: _357  and  _358
REMARK  141  A    between atoms: _360  and  _362
REMARK  142  A    between atoms: _362  and  _363
REMARK  143  A    between atoms: _362  and  _365
REMARK  144  A    between atoms: _368  and  _370
REMARK  145  A    between atoms: _370  and  _371
REMARK  146  A    between atoms: _374  and  _376
REMARK  147  A    between atoms: _376  and  _377
REMARK  148  A    between atoms: _376  and  _379
REMARK  149  A    between atoms: _379  and  _380
REMARK  150  A    between atoms: _385  and  _387
REMARK  151  A    between atoms: _387  and  _388
REMARK  152  A    between atoms: _387  and  _390
REMARK  153  A    between atoms: _390  and  _391
REMARK  154  A    between atoms: _391  and  _392
REMARK  155  A    between atoms: _392  and  _393
REMARK  156  A    between atoms: _393  and  _394
REMARK  157  A    between atoms: _398  and  _400
REMARK  158  A    between atoms: _400  and  _401
REMARK  159  A    between atoms: _400  and  _403
REMARK  160  A    between atoms: _403  and  _404
REMARK  161  A    between atoms: _407  and  _409
REMARK  162  A    between atoms: _409  and  _410
REMARK  163  A    between atoms: _409  and  _412
REMARK  164  A    between atoms: _412  and  _413
REMARK  165  A    between atoms: _418  and  _420
REMARK  166  A    between atoms: _420  and  _421
REMARK  167  A    between atoms: _423  and  _425
REMARK  168  A    between atoms: _425  and  _426
REMARK  169  A    between atoms: _425  and  _428
REMARK  170  A    between atoms: _428  and  _429
REMARK  171  A    between atoms: _429  and  _430
REMARK  172  A    between atoms: _430  and  _431
REMARK  173  A    between atoms: _431  and  _432
REMARK  174  A    between atoms: _436  and  _438
REMARK  175  A    between atoms: _438  and  _439
REMARK  176  A    between atoms: _438  and  _441
REMARK  177  A    between atoms: _441  and  _442
REMARK  178  A    between atoms: _442  and  _443
REMARK  179  A    between atoms: _443  and  _444
REMARK  180  A    between atoms: _453  and  _455
REMARK  181  A    between atoms: _455  and  _456
REMARK  182  A    between atoms: _455  and  _458
REMARK  183  A    between atoms: _458  and  _459
REMARK  184  A    between atoms: _464  and  _465
REMARK  185  A    between atoms: _467  and  _469
REMARK  186  A    between atoms: _469  and  _470
REMARK  187  A    between atoms: _469  and  _472
REMARK  188  A    between atoms: _472  and  _473
REMARK  189  A    between atoms: _473  and  _474
REMARK  190  A    between atoms: _474  and  _475
REMARK  191  A    between atoms: _475  and  _476
REMARK  192  A    between atoms: _480  and  _482
REMARK  193  A    between atoms: _482  and  _483
REMARK  194  A    between atoms: _482  and  _485
REMARK  195  A    between atoms: _485  and  _486
REMARK  196  A    between atoms: _488  and  _490
REMARK  197  A    between atoms: _490  and  _491
REMARK  198  A    between atoms: _490  and  _493
REMARK  199  A    between atoms: _493  and  _494
REMARK  200  A    between atoms: _497  and  _499
REMARK  201  A    between atoms: _499  and  _500
REMARK  202  A    between atoms: _499  and  _502
REMARK  203  A    between atoms: _502  and  _503
REMARK  204  A    between atoms: _503  and  _504
REMARK  205  A    between atoms: _507  and  _509
REMARK  206  A    between atoms: _509  and  _510
REMARK  207  A    between atoms: _513  and  _515
REMARK  208  A    between atoms: _515  and  _516
REMARK  209  A    between atoms: _515  and  _518
REMARK  210  A    between atoms: _518  and  _519
REMARK  211  A    between atoms: _521  and  _523
REMARK  212  A    between atoms: _523  and  _524
REMARK  213  A    between atoms: _526  and  _528
REMARK  214  A    between atoms: _528  and  _529
REMARK  215  A    between atoms: _528  and  _531
REMARK  216  A    between atoms: _531  and  _532
REMARK  217  A    between atoms: _535  and  _537
REMARK  218  A    between atoms: _537  and  _538
REMARK  219  A    between atoms: _540  and  _542
REMARK  220  A    between atoms: _542  and  _543
REMARK  221  A    between atoms: _542  and  _545
REMARK  222  A    between atoms: _545  and  _546
REMARK  223  A    between atoms: _551  and  _553
REMARK  224  A    between atoms: _553  and  _554
REMARK  225  A    between atoms: _553  and  _556
REMARK  226  A    between atoms: _556  and  _557
REMARK  227  A    between atoms: _557  and  _558
REMARK  228  A    between atoms: _565  and  _566
REMARK  229  A    between atoms: _566  and  _582
REMARK  230  A    between atoms: _567  and  _569
REMARK  231  A    between atoms: _569  and  _570
REMARK  232  A    between atoms: _570  and  _571
REMARK  233  A    between atoms: _575  and  _577
REMARK  234  A    between atoms: _577  and  _578
REMARK  235  A    between atoms: _577  and  _585
REMARK  236  A    between atoms: _578  and  _579
REMARK  237  A    between atoms: _579  and  _580
REMARK  238  A    between atoms: _580  and  _581
REMARK  239  A    between atoms: _581  and  _582
REMARK  240  A    between atoms: _587  and  _589
REMARK  241  A    between atoms: _589  and  _590
REMARK  242  A    between atoms: _589  and  _592
REMARK  243  A    between atoms: _592  and  _593
REMARK  244  A    between atoms: _596  and  _598
REMARK  245  A    between atoms: _598  and  _599
REMARK  246  A    between atoms: _601  and  _603
REMARK  247  A    between atoms: _603  and  _604
REMARK  248  A    between atoms: _607  and  _609
REMARK  249  A    between atoms: _609  and  _610
REMARK  250  A    between atoms: _609  and  _612
REMARK  251  A    between atoms: _612  and  _613
REMARK  252  A    between atoms: _618  and  _619
REMARK                            x       y       z     vdW  Elec       q    Type
REMARK                         _______ _______ _______ _____ _____    ______ ____
ROOT
ATOM      1  O   HOH     1      30.889  23.848  33.425  0.00  0.00    +0.000 OA
ENDROOT
TORSDOF 0
REMARK  Name = ../refined-set-2016/2qrh/2qrh_pocket.pdb
REMARK  252 active torsions:
REMARK  status: ('A' for Active; 'I' for Inactive)
REMARK    1  A    between atoms: _1  and  _3
REMARK    2  A    between atoms: _3  and  _4
REMARK    3  A    between atoms: _3  and  _6
REMARK    4  A    between atoms: _6  and  _7
REMARK    5  A    between atoms: _12  and  _13
REMARK    6  A    between atoms: _15  and  _17
REMARK    7  A    between atoms: _17  and  _18
REMARK    8  A    between atoms: _17  and  _20
REMARK    9  A    between atoms: _20  and  _21
REMARK   10  A    between atoms: _21  and  _22
REMARK   11  A    between atoms: _25  and  _27
REMARK   12  A    between atoms: _27  and  _28
REMARK   13  A    between atoms: _30  and  _32
REMARK   14  A    between atoms: _32  and  _33
REMARK   15  A    between atoms: _32  and  _35
REMARK   16  A    between atoms: _35  and  _36
REMARK   17  A    between atoms: _41  and  _43
REMARK   18  A    between atoms: _43  and  _44
REMARK   19  A    between atoms: _46  and  _48
REMARK   20  A    between atoms: _48  and  _49
REMARK   21  A    between atoms: _51  and  _53
REMARK   22  A    between atoms: _53  and  _54
REMARK   23  A    between atoms: _53  and  _56
REMARK   24  A    between atoms: _56  and  _57
REMARK   25  A    between atoms: _60  and  _62
REMARK   26  A    between atoms: _62  and  _63
REMARK   27  A    between atoms: _65  and  _67
REMARK   28  A    between atoms: _67  and  _68
REMARK   29  A    between atoms: _67  and  _70
REMARK   30  A    between atoms: _70  and  _71
REMARK   31  A    between atoms: _71  and  _72
REMARK   32  A    between atoms: _72  and  _73
REMARK   33  A    between atoms: _82  and  _84
REMARK   34  A    between atoms: _84  and  _85
REMARK   35  A    between atoms: _84  and  _87
REMARK   36  A    between atoms: _87  and  _88
REMARK   37  A    between atoms: _91  and  _93
REMARK   38  A    between atoms: _93  and  _94
REMARK   39  A    between atoms: _97  and  _99
REMARK   40  A    between atoms: _99  and  _100
REMARK   41  A    between atoms: _99  and  _102
REMARK   42  A    between atoms: _102  and  _103
REMARK   43  A    between atoms: _109  and  _111
REMARK   44  A    between atoms: _111  and  _112
REMARK   45  A    between atoms: _111  and  _114
REMARK   46  A    between atoms: _114  and  _115
REMARK   47  A    between atoms: _120  and  _121
REMARK   48  A    between atoms: _124  and  _125
REMARK   49  A    between atoms: _130  and  _132
REMARK   50  A    between atoms: _132  and  _133
REMARK   51  A    between atoms: _132  and  _135
REMARK   52  A    between atoms: _135  and  _136
REMARK   53  A    between atoms: _141  and  _143
REMARK   54  A    between atoms: _143  and  _144
REMARK   55  A    between atoms: _143  and  _146
REMARK   56  A    between atoms: _146  and  _147
REMARK   57  A    between atoms: _150  and  _152
REMARK   58  A    between atoms: _152  and  _153
REMARK   59  A    between atoms: _152  and  _155
REMARK   60  A    between atoms: _155  and  _156
REMARK   61  A    between atoms: _161  and  _163
REMARK   62  A    between atoms: _163  and  _164
REMARK   63  A    between atoms: _163  and  _166
REMARK   64  A    between atoms: _166  and  _167
REMARK   65  A    between atoms: _173  and  _175
REMARK   66  A    between atoms: _175  and  _176
REMARK   67  A    between atoms: _175  and  _178
REMARK   68  A    between atoms: _178  and  _179
REMARK   69  A    between atoms: _185  and  _187
REMARK   70  A    between atoms: _187  and  _188
REMARK   71  A    between atoms: _187  and  _190
REMARK   72  A    between atoms: _190  and  _191
REMARK   73  A    between atoms: _191  and  _192
REMARK   74  A    between atoms: _195  and  _197
REMARK   75  A    between atoms: _197  and  _198
REMARK   76  A    between atoms: _197  and  _200
REMARK   77  A    between atoms: _200  and  _201
REMARK   78  A    between atoms: _201  and  _202
REMARK   79  A    between atoms: _202  and  _203
REMARK   80  A    between atoms: _212  and  _214
REMARK   81  A    between atoms: _214  and  _215
REMARK   82  A    between atoms: _214  and  _217
REMARK   83  A    between atoms: _217  and  _218
REMARK   84  A    between atoms: _223  and  _225
REMARK   85  A    between atoms: _225  and  _226
REMARK   86  A    between atoms: _225  and  _228
REMARK   87  A    between atoms: _228  and  _229
REMARK   88  A    between atoms: _232  and  _234
REMARK   89  A    between atoms: _234  and  _235
REMARK   90  A    between atoms: _234  and  _237
REMARK   91  A    between atoms: _237  and  _238
REMARK   92  A    between atoms: _241  and  _243
REMARK   93  A    between atoms: _243  and  _244
REMARK   94  A    between atoms: _243  and  _246
REMARK   95  A    between atoms: _246  and  _247
REMARK   96  A    between atoms: _252  and  _254
REMARK   97  A    between atoms: _254  and  _255
REMARK   98  A    between atoms: _254  and  _257
REMARK   99  A    between atoms: _257  and  _258
REMARK  100  A    between atoms: _261  and  _263
REMARK  101  A    between atoms: _263  and  _264
REMARK  102  A    between atoms: _263  and  _266
REMARK  103  A    between atoms: _266  and  _267
REMARK  104  A    between atoms: _272  and  _274
REMARK  105  A    between atoms: _274  and  _275
REMARK  106  A    between atoms: _274  and  _277
REMARK  107  A    between atoms: _277  and  _278
REMARK  108  A    between atoms: _283  and  _285
REMARK  109  A    between atoms: _285  and  _286
REMARK  110  A    between atoms: _285  and  _288
REMARK  111  A    between atoms: _288  and  _289
REMARK  112  A    between atoms: _292  and  _294
REMARK  113  A    between atoms: _294  and  _295
REMARK  114  A    between atoms: _294  and  _297
REMARK  115  A    between atoms: _300  and  _302
REMARK  116  A    between atoms: _302  and  _303
REMARK  117  A    between atoms: _302  and  _305
REMARK  118  A    between atoms: _305  and  _306
REMARK  119  A    between atoms: _309  and  _311
REMARK  120  A    between atoms: _311  and  _312
REMARK  121  A    between atoms: _311  and  _314
REMARK  122  A    between atoms: _314  and  _315
REMARK  123  A    between atoms: _315  and  _316
REMARK  124  A    between atoms: _319  and  _321
REMARK  125  A    between atoms: _321  and  _322
REMARK  126  A    between atoms: _325  and  _327
REMARK  127  A    between atoms: _327  and  _328
REMARK  128  A    between atoms: _327  and  _330
REMARK  129  A    between atoms: _330  and  _331
REMARK  130  A    between atoms: _334  and  _336
REMARK  131  A    between atoms: _336  and  _337
REMARK  132  A    between atoms: _336  and  _339
REMARK  133  A    between atoms: _339  and  _340
REMARK  134  A    between atoms: _340  and  _341
REMARK  135  A    between atoms: _344  and  _346
REMARK  136  A    between atoms: _346  and  _347
REMARK  137  A    between atoms: _346  and  _349
REMARK  138  A    between atoms: _349  and  _350
REMARK  139  A    between atoms: _355  and  _357
REMARK  140  A    between atoms: _357  and  _358
REMARK  141  A    between atoms: _360  and  _362
REMARK  142  A    between atoms: _362  and  _363
REMARK  143  A    between atoms: _362  and  _365
REMARK  144  A    between atoms: _368  and  _370
REMARK  145  A    between atoms: _370  and  _371
REMARK  146  A    between atoms: _374  and  _376
REMARK  147  A    between atoms: _376  and  _377
REMARK  148  A    between atoms: _376  and  _379
REMARK  149  A    between atoms: _379  and  _380
REMARK  150  A    between atoms: _385  and  _387
REMARK  151  A    between atoms: _387  and  _388
REMARK  152  A    between atoms: _387  and  _390
REMARK  153  A    between atoms: _390  and  _391
REMARK  154  A    between atoms: _391  and  _392
REMARK  155  A    between atoms: _392  and  _393
REMARK  156  A    between atoms: _393  and  _394
REMARK  157  A    between atoms: _398  and  _400
REMARK  158  A    between atoms: _400  and  _401
REMARK  159  A    between atoms: _400  and  _403
REMARK  160  A    between atoms: _403  and  _404
REMARK  161  A    between atoms: _407  and  _409
REMARK  162  A    between atoms: _409  and  _410
REMARK  163  A    between atoms: _409  and  _412
REMARK  164  A    between atoms: _412  and  _413
REMARK  165  A    between atoms: _418  and  _420
REMARK  166  A    between atoms: _420  and  _421
REMARK  167  A    between atoms: _423  and  _425
REMARK  168  A    between atoms: _425  and  _426
REMARK  169  A    between atoms: _425  and  _428
REMARK  170  A    between atoms: _428  and  _429
REMARK  171  A    between atoms: _429  and  _430
REMARK  172  A    between atoms: _430  and  _431
REMARK  173  A    between atoms: _431  and  _432
REMARK  174  A    between atoms: _436  and  _438
REMARK  175  A    between atoms: _438  and  _439
REMARK  176  A    between atoms: _438  and  _441
REMARK  177  A    between atoms: _441  and  _442
REMARK  178  A    between atoms: _442  and  _443
REMARK  179  A    between atoms: _443  and  _444
REMARK  180  A    between atoms: _453  and  _455
REMARK  181  A    between atoms: _455  and  _456
REMARK  182  A    between atoms: _455  and  _458
REMARK  183  A    between atoms: _458  and  _459
REMARK  184  A    between atoms: _464  and  _465
REMARK  185  A    between atoms: _467  and  _469
REMARK  186  A    between atoms: _469  and  _470
REMARK  187  A    between atoms: _469  and  _472
REMARK  188  A    between atoms: _472  and  _473
REMARK  189  A    between atoms: _473  and  _474
REMARK  190  A    between atoms: _474  and  _475
REMARK  191  A    between atoms: _475  and  _476
REMARK  192  A    between atoms: _480  and  _482
REMARK  193  A    between atoms: _482  and  _483
REMARK  194  A    between atoms: _482  and  _485
REMARK  195  A    between atoms: _485  and  _486
REMARK  196  A    between atoms: _488  and  _490
REMARK  197  A    between atoms: _490  and  _491
REMARK  198  A    between atoms: _490  and  _493
REMARK  199  A    between atoms: _493  and  _494
REMARK  200  A    between atoms: _497  and  _499
REMARK  201  A    between atoms: _499  and  _500
REMARK  202  A    between atoms: _499  and  _502
REMARK  203  A    between atoms: _502  and  _503
REMARK  204  A    between atoms: _503  and  _504
REMARK  205  A    between atoms: _507  and  _509
REMARK  206  A    between atoms: _509  and  _510
REMARK  207  A    between atoms: _513  and  _515
REMARK  208  A    between atoms: _515  and  _516
REMARK  209  A    between atoms: _515  and  _518
REMARK  210  A    between atoms: _518  and  _519
REMARK  211  A    between atoms: _521  and  _523
REMARK  212  A    between atoms: _523  and  _524
REMARK  213  A    between atoms: _526  and  _528
REMARK  214  A    between atoms: _528  and  _529
REMARK  215  A    between atoms: _528  and  _531
REMARK  216  A    between atoms: _531  and  _532
REMARK  217  A    between atoms: _535  and  _537
REMARK  218  A    between atoms: _537  and  _538
REMARK  219  A    between atoms: _540  and  _542
REMARK  220  A    between atoms: _542  and  _543
REMARK  221  A    between atoms: _542  and  _545
REMARK  222  A    between atoms: _545  and  _546
REMARK  223  A    between atoms: _551  and  _553
REMARK  224  A    between atoms: _553  and  _554
REMARK  225  A    between atoms: _553  and  _556
REMARK  226  A    between atoms: _556  and  _557
REMARK  227  A    between atoms: _557  and  _558
REMARK  228  A    between atoms: _565  and  _566
REMARK  229  A    between atoms: _566  and  _582
REMARK  230  A    between atoms: _567  and  _569
REMARK  231  A    between atoms: _569  and  _570
REMARK  232  A    between atoms: _570  and  _571
REMARK  233  A    between atoms: _575  and  _577
REMARK  234  A    between atoms: _577  and  _578
REMARK  235  A    between atoms: _577  and  _585
REMARK  236  A    between atoms: _578  and  _579
REMARK  237  A    between atoms: _579  and  _580
REMARK  238  A    between atoms: _580  and  _581
REMARK  239  A    between atoms: _581  and  _582
REMARK  240  A    between atoms: _587  and  _589
REMARK  241  A    between atoms: _589  and  _590
REMARK  242  A    between atoms: _589  and  _592
REMARK  243  A    between atoms: _592  and  _593
REMARK  244  A    between atoms: _596  and  _598
REMARK  245  A    between atoms: _598  and  _599
REMARK  246  A    between atoms: _601  and  _603
REMARK  247  A    between atoms: _603  and  _604
REMARK  248  A    between atoms: _607  and  _609
REMARK  249  A    between atoms: _609  and  _610
REMARK  250  A    between atoms: _609  and  _612
REMARK  251  A    between atoms: _612  and  _613
REMARK  252  A    between atoms: _618  and  _619
REMARK                            x       y       z     vdW  Elec       q    Type
REMARK                         _______ _______ _______ _____ _____    ______ ____
ROOT
ATOM      1  O   HOH     1      36.160  24.907  24.196  0.00  0.00    +0.000 OA
ENDROOT
TORSDOF 0
REMARK  Name = ../refined-set-2016/2qrh/2qrh_pocket.pdb
REMARK  252 active torsions:
REMARK  status: ('A' for Active; 'I' for Inactive)
REMARK    1  A    between atoms: _1  and  _3
REMARK    2  A    between atoms: _3  and  _4
REMARK    3  A    between atoms: _3  and  _6
REMARK    4  A    between atoms: _6  and  _7
REMARK    5  A    between atoms: _12  and  _13
REMARK    6  A    between atoms: _15  and  _17
REMARK    7  A    between atoms: _17  and  _18
REMARK    8  A    between atoms: _17  and  _20
REMARK    9  A    between atoms: _20  and  _21
REMARK   10  A    between atoms: _21  and  _22
REMARK   11  A    between atoms: _25  and  _27
REMARK   12  A    between atoms: _27  and  _28
REMARK   13  A    between atoms: _30  and  _32
REMARK   14  A    between atoms: _32  and  _33
REMARK   15  A    between atoms: _32  and  _35
REMARK   16  A    between atoms: _35  and  _36
REMARK   17  A    between atoms: _41  and  _43
REMARK   18  A    between atoms: _43  and  _44
REMARK   19  A    between atoms: _46  and  _48
REMARK   20  A    between atoms: _48  and  _49
REMARK   21  A    between atoms: _51  and  _53
REMARK   22  A    between atoms: _53  and  _54
REMARK   23  A    between atoms: _53  and  _56
REMARK   24  A    between atoms: _56  and  _57
REMARK   25  A    between atoms: _60  and  _62
REMARK   26  A    between atoms: _62  and  _63
REMARK   27  A    between atoms: _65  and  _67
REMARK   28  A    between atoms: _67  and  _68
REMARK   29  A    between atoms: _67  and  _70
REMARK   30  A    between atoms: _70  and  _71
REMARK   31  A    between atoms: _71  and  _72
REMARK   32  A    between atoms: _72  and  _73
REMARK   33  A    between atoms: _82  and  _84
REMARK   34  A    between atoms: _84  and  _85
REMARK   35  A    between atoms: _84  and  _87
REMARK   36  A    between atoms: _87  and  _88
REMARK   37  A    between atoms: _91  and  _93
REMARK   38  A    between atoms: _93  and  _94
REMARK   39  A    between atoms: _97  and  _99
REMARK   40  A    between atoms: _99  and  _100
REMARK   41  A    between atoms: _99  and  _102
REMARK   42  A    between atoms: _102  and  _103
REMARK   43  A    between atoms: _109  and  _111
REMARK   44  A    between atoms: _111  and  _112
REMARK   45  A    between atoms: _111  and  _114
REMARK   46  A    between atoms: _114  and  _115
REMARK   47  A    between atoms: _120  and  _121
REMARK   48  A    between atoms: _124  and  _125
REMARK   49  A    between atoms: _130  and  _132
REMARK   50  A    between atoms: _132  and  _133
REMARK   51  A    between atoms: _132  and  _135
REMARK   52  A    between atoms: _135  and  _136
REMARK   53  A    between atoms: _141  and  _143
REMARK   54  A    between atoms: _143  and  _144
REMARK   55  A    between atoms: _143  and  _146
REMARK   56  A    between atoms: _146  and  _147
REMARK   57  A    between atoms: _150  and  _152
REMARK   58  A    between atoms: _152  and  _153
REMARK   59  A    between atoms: _152  and  _155
REMARK   60  A    between atoms: _155  and  _156
REMARK   61  A    between atoms: _161  and  _163
REMARK   62  A    between atoms: _163  and  _164
REMARK   63  A    between atoms: _163  and  _166
REMARK   64  A    between atoms: _166  and  _167
REMARK   65  A    between atoms: _173  and  _175
REMARK   66  A    between atoms: _175  and  _176
REMARK   67  A    between atoms: _175  and  _178
REMARK   68  A    between atoms: _178  and  _179
REMARK   69  A    between atoms: _185  and  _187
REMARK   70  A    between atoms: _187  and  _188
REMARK   71  A    between atoms: _187  and  _190
REMARK   72  A    between atoms: _190  and  _191
REMARK   73  A    between atoms: _191  and  _192
REMARK   74  A    between atoms: _195  and  _197
REMARK   75  A    between atoms: _197  and  _198
REMARK   76  A    between atoms: _197  and  _200
REMARK   77  A    between atoms: _200  and  _201
REMARK   78  A    between atoms: _201  and  _202
REMARK   79  A    between atoms: _202  and  _203
REMARK   80  A    between atoms: _212  and  _214
REMARK   81  A    between atoms: _214  and  _215
REMARK   82  A    between atoms: _214  and  _217
REMARK   83  A    between atoms: _217  and  _218
REMARK   84  A    between atoms: _223  and  _225
REMARK   85  A    between atoms: _225  and  _226
REMARK   86  A    between atoms: _225  and  _228
REMARK   87  A    between atoms: _228  and  _229
REMARK   88  A    between atoms: _232  and  _234
REMARK   89  A    between atoms: _234  and  _235
REMARK   90  A    between atoms: _234  and  _237
REMARK   91  A    between atoms: _237  and  _238
REMARK   92  A    between atoms: _241  and  _243
REMARK   93  A    between atoms: _243  and  _244
REMARK   94  A    between atoms: _243  and  _246
REMARK   95  A    between atoms: _246  and  _247
REMARK   96  A    between atoms: _252  and  _254
REMARK   97  A    between atoms: _254  and  _255
REMARK   98  A    between atoms: _254  and  _257
REMARK   99  A    between atoms: _257  and  _258
REMARK  100  A    between atoms: _261  and  _263
REMARK  101  A    between atoms: _263  and  _264
REMARK  102  A    between atoms: _263  and  _266
REMARK  103  A    between atoms: _266  and  _267
REMARK  104  A    between atoms: _272  and  _274
REMARK  105  A    between atoms: _274  and  _275
REMARK  106  A    between atoms: _274  and  _277
REMARK  107  A    between atoms: _277  and  _278
REMARK  108  A    between atoms: _283  and  _285
REMARK  109  A    between atoms: _285  and  _286
REMARK  110  A    between atoms: _285  and  _288
REMARK  111  A    between atoms: _288  and  _289
REMARK  112  A    between atoms: _292  and  _294
REMARK  113  A    between atoms: _294  and  _295
REMARK  114  A    between atoms: _294  and  _297
REMARK  115  A    between atoms: _300  and  _302
REMARK  116  A    between atoms: _302  and  _303
REMARK  117  A    between atoms: _302  and  _305
REMARK  118  A    between atoms: _305  and  _306
REMARK  119  A    between atoms: _309  and  _311
REMARK  120  A    between atoms: _311  and  _312
REMARK  121  A    between atoms: _311  and  _314
REMARK  122  A    between atoms: _314  and  _315
REMARK  123  A    between atoms: _315  and  _316
REMARK  124  A    between atoms: _319  and  _321
REMARK  125  A    between atoms: _321  and  _322
REMARK  126  A    between atoms: _325  and  _327
REMARK  127  A    between atoms: _327  and  _328
REMARK  128  A    between atoms: _327  and  _330
REMARK  129  A    between atoms: _330  and  _331
REMARK  130  A    between atoms: _334  and  _336
REMARK  131  A    between atoms: _336  and  _337
REMARK  132  A    between atoms: _336  and  _339
REMARK  133  A    between atoms: _339  and  _340
REMARK  134  A    between atoms: _340  and  _341
REMARK  135  A    between atoms: _344  and  _346
REMARK  136  A    between atoms: _346  and  _347
REMARK  137  A    between atoms: _346  and  _349
REMARK  138  A    between atoms: _349  and  _350
REMARK  139  A    between atoms: _355  and  _357
REMARK  140  A    between atoms: _357  and  _358
REMARK  141  A    between atoms: _360  and  _362
REMARK  142  A    between atoms: _362  and  _363
REMARK  143  A    between atoms: _362  and  _365
REMARK  144  A    between atoms: _368  and  _370
REMARK  145  A    between atoms: _370  and  _371
REMARK  146  A    between atoms: _374  and  _376
REMARK  147  A    between atoms: _376  and  _377
REMARK  148  A    between atoms: _376  and  _379
REMARK  149  A    between atoms: _379  and  _380
REMARK  150  A    between atoms: _385  and  _387
REMARK  151  A    between atoms: _387  and  _388
REMARK  152  A    between atoms: _387  and  _390
REMARK  153  A    between atoms: _390  and  _391
REMARK  154  A    between atoms: _391  and  _392
REMARK  155  A    between atoms: _392  and  _393
REMARK  156  A    between atoms: _393  and  _394
REMARK  157  A    between atoms: _398  and  _400
REMARK  158  A    between atoms: _400  and  _401
REMARK  159  A    between atoms: _400  and  _403
REMARK  160  A    between atoms: _403  and  _404
REMARK  161  A    between atoms: _407  and  _409
REMARK  162  A    between atoms: _409  and  _410
REMARK  163  A    between atoms: _409  and  _412
REMARK  164  A    between atoms: _412  and  _413
REMARK  165  A    between atoms: _418  and  _420
REMARK  166  A    between atoms: _420  and  _421
REMARK  167  A    between atoms: _423  and  _425
REMARK  168  A    between atoms: _425  and  _426
REMARK  169  A    between atoms: _425  and  _428
REMARK  170  A    between atoms: _428  and  _429
REMARK  171  A    between atoms: _429  and  _430
REMARK  172  A    between atoms: _430  and  _431
REMARK  173  A    between atoms: _431  and  _432
REMARK  174  A    between atoms: _436  and  _438
REMARK  175  A    between atoms: _438  and  _439
REMARK  176  A    between atoms: _438  and  _441
REMARK  177  A    between atoms: _441  and  _442
REMARK  178  A    between atoms: _442  and  _443
REMARK  179  A    between atoms: _443  and  _444
REMARK  180  A    between atoms: _453  and  _455
REMARK  181  A    between atoms: _455  and  _456
REMARK  182  A    between atoms: _455  and  _458
REMARK  183  A    between atoms: _458  and  _459
REMARK  184  A    between atoms: _464  and  _465
REMARK  185  A    between atoms: _467  and  _469
REMARK  186  A    between atoms: _469  and  _470
REMARK  187  A    between atoms: _469  and  _472
REMARK  188  A    between atoms: _472  and  _473
REMARK  189  A    between atoms: _473  and  _474
REMARK  190  A    between atoms: _474  and  _475
REMARK  191  A    between atoms: _475  and  _476
REMARK  192  A    between atoms: _480  and  _482
REMARK  193  A    between atoms: _482  and  _483
REMARK  194  A    between atoms: _482  and  _485
REMARK  195  A    between atoms: _485  and  _486
REMARK  196  A    between atoms: _488  and  _490
REMARK  197  A    between atoms: _490  and  _491
REMARK  198  A    between atoms: _490  and  _493
REMARK  199  A    between atoms: _493  and  _494
REMARK  200  A    between atoms: _497  and  _499
REMARK  201  A    between atoms: _499  and  _500
REMARK  202  A    between atoms: _499  and  _502
REMARK  203  A    between atoms: _502  and  _503
REMARK  204  A    between atoms: _503  and  _504
REMARK  205  A    between atoms: _507  and  _509
REMARK  206  A    between atoms: _509  and  _510
REMARK  207  A    between atoms: _513  and  _515
REMARK  208  A    between atoms: _515  and  _516
REMARK  209  A    between atoms: _515  and  _518
REMARK  210  A    between atoms: _518  and  _519
REMARK  211  A    between atoms: _521  and  _523
REMARK  212  A    between atoms: _523  and  _524
REMARK  213  A    between atoms: _526  and  _528
REMARK  214  A    between atoms: _528  and  _529
REMARK  215  A    between atoms: _528  and  _531
REMARK  216  A    between atoms: _531  and  _532
REMARK  217  A    between atoms: _535  and  _537
REMARK  218  A    between atoms: _537  and  _538
REMARK  219  A    between atoms: _540  and  _542
REMARK  220  A    between atoms: _542  and  _543
REMARK  221  A    between atoms: _542  and  _545
REMARK  222  A    between atoms: _545  and  _546
REMARK  223  A    between atoms: _551  and  _553
REMARK  224  A    between atoms: _553  and  _554
REMARK  225  A    between atoms: _553  and  _556
REMARK  226  A    between atoms: _556  and  _557
REMARK  227  A    between atoms: _557  and  _558
REMARK  228  A    between atoms: _565  and  _566
REMARK  229  A    between atoms: _566  and  _582
REMARK  230  A    between atoms: _567  and  _569
REMARK  231  A    between atoms: _569  and  _570
REMARK  232  A    between atoms: _570  and  _571
REMARK  233  A    between atoms: _575  and  _577
REMARK  234  A    between atoms: _577  and  _578
REMARK  235  A    between atoms: _577  and  _585
REMARK  236  A    between atoms: _578  and  _579
REMARK  237  A    between atoms: _579  and  _580
REMARK  238  A    between atoms: _580  and  _581
REMARK  239  A    between atoms: _581  and  _582
REMARK  240  A    between atoms: _587  and  _589
REMARK  241  A    between atoms: _589  and  _590
REMARK  242  A    between atoms: _589  and  _592
REMARK  243  A    between atoms: _592  and  _593
REMARK  244  A    between atoms: _596  and  _598
REMARK  245  A    between atoms: _598  and  _599
REMARK  246  A    between atoms: _601  and  _603
REMARK  247  A    between atoms: _603  and  _604
REMARK  248  A    between atoms: _607  and  _609
REMARK  249  A    between atoms: _609  and  _610
REMARK  250  A    between atoms: _609  and  _612
REMARK  251  A    between atoms: _612  and  _613
REMARK  252  A    between atoms: _618  and  _619
REMARK                            x       y       z     vdW  Elec       q    Type
REMARK                         _______ _______ _______ _____ _____    ______ ____
ROOT
ATOM      1  O   HOH     1      38.963  22.930  19.708  0.00  0.00    +0.000 OA
ENDROOT
TORSDOF 0
REMARK  Name = ../refined-set-2016/2qrh/2qrh_pocket.pdb
REMARK  252 active torsions:
REMARK  status: ('A' for Active; 'I' for Inactive)
REMARK    1  A    between atoms: _1  and  _3
REMARK    2  A    between atoms: _3  and  _4
REMARK    3  A    between atoms: _3  and  _6
REMARK    4  A    between atoms: _6  and  _7
REMARK    5  A    between atoms: _12  and  _13
REMARK    6  A    between atoms: _15  and  _17
REMARK    7  A    between atoms: _17  and  _18
REMARK    8  A    between atoms: _17  and  _20
REMARK    9  A    between atoms: _20  and  _21
REMARK   10  A    between atoms: _21  and  _22
REMARK   11  A    between atoms: _25  and  _27
REMARK   12  A    between atoms: _27  and  _28
REMARK   13  A    between atoms: _30  and  _32
REMARK   14  A    between atoms: _32  and  _33
REMARK   15  A    between atoms: _32  and  _35
REMARK   16  A    between atoms: _35  and  _36
REMARK   17  A    between atoms: _41  and  _43
REMARK   18  A    between atoms: _43  and  _44
REMARK   19  A    between atoms: _46  and  _48
REMARK   20  A    between atoms: _48  and  _49
REMARK   21  A    between atoms: _51  and  _53
REMARK   22  A    between atoms: _53  and  _54
REMARK   23  A    between atoms: _53  and  _56
REMARK   24  A    between atoms: _56  and  _57
REMARK   25  A    between atoms: _60  and  _62
REMARK   26  A    between atoms: _62  and  _63
REMARK   27  A    between atoms: _65  and  _67
REMARK   28  A    between atoms: _67  and  _68
REMARK   29  A    between atoms: _67  and  _70
REMARK   30  A    between atoms: _70  and  _71
REMARK   31  A    between atoms: _71  and  _72
REMARK   32  A    between atoms: _72  and  _73
REMARK   33  A    between atoms: _82  and  _84
REMARK   34  A    between atoms: _84  and  _85
REMARK   35  A    between atoms: _84  and  _87
REMARK   36  A    between atoms: _87  and  _88
REMARK   37  A    between atoms: _91  and  _93
REMARK   38  A    between atoms: _93  and  _94
REMARK   39  A    between atoms: _97  and  _99
REMARK   40  A    between atoms: _99  and  _100
REMARK   41  A    between atoms: _99  and  _102
REMARK   42  A    between atoms: _102  and  _103
REMARK   43  A    between atoms: _109  and  _111
REMARK   44  A    between atoms: _111  and  _112
REMARK   45  A    between atoms: _111  and  _114
REMARK   46  A    between atoms: _114  and  _115
REMARK   47  A    between atoms: _120  and  _121
REMARK   48  A    between atoms: _124  and  _125
REMARK   49  A    between atoms: _130  and  _132
REMARK   50  A    between atoms: _132  and  _133
REMARK   51  A    between atoms: _132  and  _135
REMARK   52  A    between atoms: _135  and  _136
REMARK   53  A    between atoms: _141  and  _143
REMARK   54  A    between atoms: _143  and  _144
REMARK   55  A    between atoms: _143  and  _146
REMARK   56  A    between atoms: _146  and  _147
REMARK   57  A    between atoms: _150  and  _152
REMARK   58  A    between atoms: _152  and  _153
REMARK   59  A    between atoms: _152  and  _155
REMARK   60  A    between atoms: _155  and  _156
REMARK   61  A    between atoms: _161  and  _163
REMARK   62  A    between atoms: _163  and  _164
REMARK   63  A    between atoms: _163  and  _166
REMARK   64  A    between atoms: _166  and  _167
REMARK   65  A    between atoms: _173  and  _175
REMARK   66  A    between atoms: _175  and  _176
REMARK   67  A    between atoms: _175  and  _178
REMARK   68  A    between atoms: _178  and  _179
REMARK   69  A    between atoms: _185  and  _187
REMARK   70  A    between atoms: _187  and  _188
REMARK   71  A    between atoms: _187  and  _190
REMARK   72  A    between atoms: _190  and  _191
REMARK   73  A    between atoms: _191  and  _192
REMARK   74  A    between atoms: _195  and  _197
REMARK   75  A    between atoms: _197  and  _198
REMARK   76  A    between atoms: _197  and  _200
REMARK   77  A    between atoms: _200  and  _201
REMARK   78  A    between atoms: _201  and  _202
REMARK   79  A    between atoms: _202  and  _203
REMARK   80  A    between atoms: _212  and  _214
REMARK   81  A    between atoms: _214  and  _215
REMARK   82  A    between atoms: _214  and  _217
REMARK   83  A    between atoms: _217  and  _218
REMARK   84  A    between atoms: _223  and  _225
REMARK   85  A    between atoms: _225  and  _226
REMARK   86  A    between atoms: _225  and  _228
REMARK   87  A    between atoms: _228  and  _229
REMARK   88  A    between atoms: _232  and  _234
REMARK   89  A    between atoms: _234  and  _235
REMARK   90  A    between atoms: _234  and  _237
REMARK   91  A    between atoms: _237  and  _238
REMARK   92  A    between atoms: _241  and  _243
REMARK   93  A    between atoms: _243  and  _244
REMARK   94  A    between atoms: _243  and  _246
REMARK   95  A    between atoms: _246  and  _247
REMARK   96  A    between atoms: _252  and  _254
REMARK   97  A    between atoms: _254  and  _255
REMARK   98  A    between atoms: _254  and  _257
REMARK   99  A    between atoms: _257  and  _258
REMARK  100  A    between atoms: _261  and  _263
REMARK  101  A    between atoms: _263  and  _264
REMARK  102  A    between atoms: _263  and  _266
REMARK  103  A    between atoms: _266  and  _267
REMARK  104  A    between atoms: _272  and  _274
REMARK  105  A    between atoms: _274  and  _275
REMARK  106  A    between atoms: _274  and  _277
REMARK  107  A    between atoms: _277  and  _278
REMARK  108  A    between atoms: _283  and  _285
REMARK  109  A    between atoms: _285  and  _286
REMARK  110  A    between atoms: _285  and  _288
REMARK  111  A    between atoms: _288  and  _289
REMARK  112  A    between atoms: _292  and  _294
REMARK  113  A    between atoms: _294  and  _295
REMARK  114  A    between atoms: _294  and  _297
REMARK  115  A    between atoms: _300  and  _302
REMARK  116  A    between atoms: _302  and  _303
REMARK  117  A    between atoms: _302  and  _305
REMARK  118  A    between atoms: _305  and  _306
REMARK  119  A    between atoms: _309  and  _311
REMARK  120  A    between atoms: _311  and  _312
REMARK  121  A    between atoms: _311  and  _314
REMARK  122  A    between atoms: _314  and  _315
REMARK  123  A    between atoms: _315  and  _316
REMARK  124  A    between atoms: _319  and  _321
REMARK  125  A    between atoms: _321  and  _322
REMARK  126  A    between atoms: _325  and  _327
REMARK  127  A    between atoms: _327  and  _328
REMARK  128  A    between atoms: _327  and  _330
REMARK  129  A    between atoms: _330  and  _331
REMARK  130  A    between atoms: _334  and  _336
REMARK  131  A    between atoms: _336  and  _337
REMARK  132  A    between atoms: _336  and  _339
REMARK  133  A    between atoms: _339  and  _340
REMARK  134  A    between atoms: _340  and  _341
REMARK  135  A    between atoms: _344  and  _346
REMARK  136  A    between atoms: _346  and  _347
REMARK  137  A    between atoms: _346  and  _349
REMARK  138  A    between atoms: _349  and  _350
REMARK  139  A    between atoms: _355  and  _357
REMARK  140  A    between atoms: _357  and  _358
REMARK  141  A    between atoms: _360  and  _362
REMARK  142  A    between atoms: _362  and  _363
REMARK  143  A    between atoms: _362  and  _365
REMARK  144  A    between atoms: _368  and  _370
REMARK  145  A    between atoms: _370  and  _371
REMARK  146  A    between atoms: _374  and  _376
REMARK  147  A    between atoms: _376  and  _377
REMARK  148  A    between atoms: _376  and  _379
REMARK  149  A    between atoms: _379  and  _380
REMARK  150  A    between atoms: _385  and  _387
REMARK  151  A    between atoms: _387  and  _388
REMARK  152  A    between atoms: _387  and  _390
REMARK  153  A    between atoms: _390  and  _391
REMARK  154  A    between atoms: _391  and  _392
REMARK  155  A    between atoms: _392  and  _393
REMARK  156  A    between atoms: _393  and  _394
REMARK  157  A    between atoms: _398  and  _400
REMARK  158  A    between atoms: _400  and  _401
REMARK  159  A    between atoms: _400  and  _403
REMARK  160  A    between atoms: _403  and  _404
REMARK  161  A    between atoms: _407  and  _409
REMARK  162  A    between atoms: _409  and  _410
REMARK  163  A    between atoms: _409  and  _412
REMARK  164  A    between atoms: _412  and  _413
REMARK  165  A    between atoms: _418  and  _420
REMARK  166  A    between atoms: _420  and  _421
REMARK  167  A    between atoms: _423  and  _425
REMARK  168  A    between atoms: _425  and  _426
REMARK  169  A    between atoms: _425  and  _428
REMARK  170  A    between atoms: _428  and  _429
REMARK  171  A    between atoms: _429  and  _430
REMARK  172  A    between atoms: _430  and  _431
REMARK  173  A    between atoms: _431  and  _432
REMARK  174  A    between atoms: _436  and  _438
REMARK  175  A    between atoms: _438  and  _439
REMARK  176  A    between atoms: _438  and  _441
REMARK  177  A    between atoms: _441  and  _442
REMARK  178  A    between atoms: _442  and  _443
REMARK  179  A    between atoms: _443  and  _444
REMARK  180  A    between atoms: _453  and  _455
REMARK  181  A    between atoms: _455  and  _456
REMARK  182  A    between atoms: _455  and  _458
REMARK  183  A    between atoms: _458  and  _459
REMARK  184  A    between atoms: _464  and  _465
REMARK  185  A    between atoms: _467  and  _469
REMARK  186  A    between atoms: _469  and  _470
REMARK  187  A    between atoms: _469  and  _472
REMARK  188  A    between atoms: _472  and  _473
REMARK  189  A    between atoms: _473  and  _474
REMARK  190  A    between atoms: _474  and  _475
REMARK  191  A    between atoms: _475  and  _476
REMARK  192  A    between atoms: _480  and  _482
REMARK  193  A    between atoms: _482  and  _483
REMARK  194  A    between atoms: _482  and  _485
REMARK  195  A    between atoms: _485  and  _486
REMARK  196  A    between atoms: _488  and  _490
REMARK  197  A    between atoms: _490  and  _491
REMARK  198  A    between atoms: _490  and  _493
REMARK  199  A    between atoms: _493  and  _494
REMARK  200  A    between atoms: _497  and  _499
REMARK  201  A    between atoms: _499  and  _500
REMARK  202  A    between atoms: _499  and  _502
REMARK  203  A    between atoms: _502  and  _503
REMARK  204  A    between atoms: _503  and  _504
REMARK  205  A    between atoms: _507  and  _509
REMARK  206  A    between atoms: _509  and  _510
REMARK  207  A    between atoms: _513  and  _515
REMARK  208  A    between atoms: _515  and  _516
REMARK  209  A    between atoms: _515  and  _518
REMARK  210  A    between atoms: _518  and  _519
REMARK  211  A    between atoms: _521  and  _523
REMARK  212  A    between atoms: _523  and  _524
REMARK  213  A    between atoms: _526  and  _528
REMARK  214  A    between atoms: _528  and  _529
REMARK  215  A    between atoms: _528  and  _531
REMARK  216  A    between atoms: _531  and  _532
REMARK  217  A    between atoms: _535  and  _537
REMARK  218  A    between atoms: _537  and  _538
REMARK  219  A    between atoms: _540  and  _542
REMARK  220  A    between atoms: _542  and  _543
REMARK  221  A    between atoms: _542  and  _545
REMARK  222  A    between atoms: _545  and  _546
REMARK  223  A    between atoms: _551  and  _553
REMARK  224  A    between atoms: _553  and  _554
REMARK  225  A    between atoms: _553  and  _556
REMARK  226  A    between atoms: _556  and  _557
REMARK  227  A    between atoms: _557  and  _558
REMARK  228  A    between atoms: _565  and  _566
REMARK  229  A    between atoms: _566  and  _582
REMARK  230  A    between atoms: _567  and  _569
REMARK  231  A    between atoms: _569  and  _570
REMARK  232  A    between atoms: _570  and  _571
REMARK  233  A    between atoms: _575  and  _577
REMARK  234  A    between atoms: _577  and  _578
REMARK  235  A    between atoms: _577  and  _585
REMARK  236  A    between atoms: _578  and  _579
REMARK  237  A    between atoms: _579  and  _580
REMARK  238  A    between atoms: _580  and  _581
REMARK  239  A    between atoms: _581  and  _582
REMARK  240  A    between atoms: _587  and  _589
REMARK  241  A    between atoms: _589  and  _590
REMARK  242  A    between atoms: _589  and  _592
REMARK  243  A    between atoms: _592  and  _593
REMARK  244  A    between atoms: _596  and  _598
REMARK  245  A    between atoms: _598  and  _599
REMARK  246  A    between atoms: _601  and  _603
REMARK  247  A    between atoms: _603  and  _604
REMARK  248  A    between atoms: _607  and  _609
REMARK  249  A    between atoms: _609  and  _610
REMARK  250  A    between atoms: _609  and  _612
REMARK  251  A    between atoms: _612  and  _613
REMARK  252  A    between atoms: _618  and  _619
REMARK                            x       y       z     vdW  Elec       q    Type
REMARK                         _______ _______ _______ _____ _____    ______ ____
ROOT
ATOM      1  O   HOH     1      43.046  20.673  30.208  0.00  0.00    +0.000 OA
ENDROOT
TORSDOF 0
REMARK  Name = ../refined-set-2016/2qrh/2qrh_pocket.pdb
REMARK  252 active torsions:
REMARK  status: ('A' for Active; 'I' for Inactive)
REMARK    1  A    between atoms: _1  and  _3
REMARK    2  A    between atoms: _3  and  _4
REMARK    3  A    between atoms: _3  and  _6
REMARK    4  A    between atoms: _6  and  _7
REMARK    5  A    between atoms: _12  and  _13
REMARK    6  A    between atoms: _15  and  _17
REMARK    7  A    between atoms: _17  and  _18
REMARK    8  A    between atoms: _17  and  _20
REMARK    9  A    between atoms: _20  and  _21
REMARK   10  A    between atoms: _21  and  _22
REMARK   11  A    between atoms: _25  and  _27
REMARK   12  A    between atoms: _27  and  _28
REMARK   13  A    between atoms: _30  and  _32
REMARK   14  A    between atoms: _32  and  _33
REMARK   15  A    between atoms: _32  and  _35
REMARK   16  A    between atoms: _35  and  _36
REMARK   17  A    between atoms: _41  and  _43
REMARK   18  A    between atoms: _43  and  _44
REMARK   19  A    between atoms: _46  and  _48
REMARK   20  A    between atoms: _48  and  _49
REMARK   21  A    between atoms: _51  and  _53
REMARK   22  A    between atoms: _53  and  _54
REMARK   23  A    between atoms: _53  and  _56
REMARK   24  A    between atoms: _56  and  _57
REMARK   25  A    between atoms: _60  and  _62
REMARK   26  A    between atoms: _62  and  _63
REMARK   27  A    between atoms: _65  and  _67
REMARK   28  A    between atoms: _67  and  _68
REMARK   29  A    between atoms: _67  and  _70
REMARK   30  A    between atoms: _70  and  _71
REMARK   31  A    between atoms: _71  and  _72
REMARK   32  A    between atoms: _72  and  _73
REMARK   33  A    between atoms: _82  and  _84
REMARK   34  A    between atoms: _84  and  _85
REMARK   35  A    between atoms: _84  and  _87
REMARK   36  A    between atoms: _87  and  _88
REMARK   37  A    between atoms: _91  and  _93
REMARK   38  A    between atoms: _93  and  _94
REMARK   39  A    between atoms: _97  and  _99
REMARK   40  A    between atoms: _99  and  _100
REMARK   41  A    between atoms: _99  and  _102
REMARK   42  A    between atoms: _102  and  _103
REMARK   43  A    between atoms: _109  and  _111
REMARK   44  A    between atoms: _111  and  _112
REMARK   45  A    between atoms: _111  and  _114
REMARK   46  A    between atoms: _114  and  _115
REMARK   47  A    between atoms: _120  and  _121
REMARK   48  A    between atoms: _124  and  _125
REMARK   49  A    between atoms: _130  and  _132
REMARK   50  A    between atoms: _132  and  _133
REMARK   51  A    between atoms: _132  and  _135
REMARK   52  A    between atoms: _135  and  _136
REMARK   53  A    between atoms: _141  and  _143
REMARK   54  A    between atoms: _143  and  _144
REMARK   55  A    between atoms: _143  and  _146
REMARK   56  A    between atoms: _146  and  _147
REMARK   57  A    between atoms: _150  and  _152
REMARK   58  A    between atoms: _152  and  _153
REMARK   59  A    between atoms: _152  and  _155
REMARK   60  A    between atoms: _155  and  _156
REMARK   61  A    between atoms: _161  and  _163
REMARK   62  A    between atoms: _163  and  _164
REMARK   63  A    between atoms: _163  and  _166
REMARK   64  A    between atoms: _166  and  _167
REMARK   65  A    between atoms: _173  and  _175
REMARK   66  A    between atoms: _175  and  _176
REMARK   67  A    between atoms: _175  and  _178
REMARK   68  A    between atoms: _178  and  _179
REMARK   69  A    between atoms: _185  and  _187
REMARK   70  A    between atoms: _187  and  _188
REMARK   71  A    between atoms: _187  and  _190
REMARK   72  A    between atoms: _190  and  _191
REMARK   73  A    between atoms: _191  and  _192
REMARK   74  A    between atoms: _195  and  _197
REMARK   75  A    between atoms: _197  and  _198
REMARK   76  A    between atoms: _197  and  _200
REMARK   77  A    between atoms: _200  and  _201
REMARK   78  A    between atoms: _201  and  _202
REMARK   79  A    between atoms: _202  and  _203
REMARK   80  A    between atoms: _212  and  _214
REMARK   81  A    between atoms: _214  and  _215
REMARK   82  A    between atoms: _214  and  _217
REMARK   83  A    between atoms: _217  and  _218
REMARK   84  A    between atoms: _223  and  _225
REMARK   85  A    between atoms: _225  and  _226
REMARK   86  A    between atoms: _225  and  _228
REMARK   87  A    between atoms: _228  and  _229
REMARK   88  A    between atoms: _232  and  _234
REMARK   89  A    between atoms: _234  and  _235
REMARK   90  A    between atoms: _234  and  _237
REMARK   91  A    between atoms: _237  and  _238
REMARK   92  A    between atoms: _241  and  _243
REMARK   93  A    between atoms: _243  and  _244
REMARK   94  A    between atoms: _243  and  _246
REMARK   95  A    between atoms: _246  and  _247
REMARK   96  A    between atoms: _252  and  _254
REMARK   97  A    between atoms: _254  and  _255
REMARK   98  A    between atoms: _254  and  _257
REMARK   99  A    between atoms: _257  and  _258
REMARK  100  A    between atoms: _261  and  _263
REMARK  101  A    between atoms: _263  and  _264
REMARK  102  A    between atoms: _263  and  _266
REMARK  103  A    between atoms: _266  and  _267
REMARK  104  A    between atoms: _272  and  _274
REMARK  105  A    between atoms: _274  and  _275
REMARK  106  A    between atoms: _274  and  _277
REMARK  107  A    between atoms: _277  and  _278
REMARK  108  A    between atoms: _283  and  _285
REMARK  109  A    between atoms: _285  and  _286
REMARK  110  A    between atoms: _285  and  _288
REMARK  111  A    between atoms: _288  and  _289
REMARK  112  A    between atoms: _292  and  _294
REMARK  113  A    between atoms: _294  and  _295
REMARK  114  A    between atoms: _294  and  _297
REMARK  115  A    between atoms: _300  and  _302
REMARK  116  A    between atoms: _302  and  _303
REMARK  117  A    between atoms: _302  and  _305
REMARK  118  A    between atoms: _305  and  _306
REMARK  119  A    between atoms: _309  and  _311
REMARK  120  A    between atoms: _311  and  _312
REMARK  121  A    between atoms: _311  and  _314
REMARK  122  A    between atoms: _314  and  _315
REMARK  123  A    between atoms: _315  and  _316
REMARK  124  A    between atoms: _319  and  _321
REMARK  125  A    between atoms: _321  and  _322
REMARK  126  A    between atoms: _325  and  _327
REMARK  127  A    between atoms: _327  and  _328
REMARK  128  A    between atoms: _327  and  _330
REMARK  129  A    between atoms: _330  and  _331
REMARK  130  A    between atoms: _334  and  _336
REMARK  131  A    between atoms: _336  and  _337
REMARK  132  A    between atoms: _336  and  _339
REMARK  133  A    between atoms: _339  and  _340
REMARK  134  A    between atoms: _340  and  _341
REMARK  135  A    between atoms: _344  and  _346
REMARK  136  A    between atoms: _346  and  _347
REMARK  137  A    between atoms: _346  and  _349
REMARK  138  A    between atoms: _349  and  _350
REMARK  139  A    between atoms: _355  and  _357
REMARK  140  A    between atoms: _357  and  _358
REMARK  141  A    between atoms: _360  and  _362
REMARK  142  A    between atoms: _362  and  _363
REMARK  143  A    between atoms: _362  and  _365
REMARK  144  A    between atoms: _368  and  _370
REMARK  145  A    between atoms: _370  and  _371
REMARK  146  A    between atoms: _374  and  _376
REMARK  147  A    between atoms: _376  and  _377
REMARK  148  A    between atoms: _376  and  _379
REMARK  149  A    between atoms: _379  and  _380
REMARK  150  A    between atoms: _385  and  _387
REMARK  151  A    between atoms: _387  and  _388
REMARK  152  A    between atoms: _387  and  _390
REMARK  153  A    between atoms: _390  and  _391
REMARK  154  A    between atoms: _391  and  _392
REMARK  155  A    between atoms: _392  and  _393
REMARK  156  A    between atoms: _393  and  _394
REMARK  157  A    between atoms: _398  and  _400
REMARK  158  A    between atoms: _400  and  _401
REMARK  159  A    between atoms: _400  and  _403
REMARK  160  A    between atoms: _403  and  _404
REMARK  161  A    between atoms: _407  and  _409
REMARK  162  A    between atoms: _409  and  _410
REMARK  163  A    between atoms: _409  and  _412
REMARK  164  A    between atoms: _412  and  _413
REMARK  165  A    between atoms: _418  and  _420
REMARK  166  A    between atoms: _420  and  _421
REMARK  167  A    between atoms: _423  and  _425
REMARK  168  A    between atoms: _425  and  _426
REMARK  169  A    between atoms: _425  and  _428
REMARK  170  A    between atoms: _428  and  _429
REMARK  171  A    between atoms: _429  and  _430
REMARK  172  A    between atoms: _430  and  _431
REMARK  173  A    between atoms: _431  and  _432
REMARK  174  A    between atoms: _436  and  _438
REMARK  175  A    between atoms: _438  and  _439
REMARK  176  A    between atoms: _438  and  _441
REMARK  177  A    between atoms: _441  and  _442
REMARK  178  A    between atoms: _442  and  _443
REMARK  179  A    between atoms: _443  and  _444
REMARK  180  A    between atoms: _453  and  _455
REMARK  181  A    between atoms: _455  and  _456
REMARK  182  A    between atoms: _455  and  _458
REMARK  183  A    between atoms: _458  and  _459
REMARK  184  A    between atoms: _464  and  _465
REMARK  185  A    between atoms: _467  and  _469
REMARK  186  A    between atoms: _469  and  _470
REMARK  187  A    between atoms: _469  and  _472
REMARK  188  A    between atoms: _472  and  _473
REMARK  189  A    between atoms: _473  and  _474
REMARK  190  A    between atoms: _474  and  _475
REMARK  191  A    between atoms: _475  and  _476
REMARK  192  A    between atoms: _480  and  _482
REMARK  193  A    between atoms: _482  and  _483
REMARK  194  A    between atoms: _482  and  _485
REMARK  195  A    between atoms: _485  and  _486
REMARK  196  A    between atoms: _488  and  _490
REMARK  197  A    between atoms: _490  and  _491
REMARK  198  A    between atoms: _490  and  _493
REMARK  199  A    between atoms: _493  and  _494
REMARK  200  A    between atoms: _497  and  _499
REMARK  201  A    between atoms: _499  and  _500
REMARK  202  A    between atoms: _499  and  _502
REMARK  203  A    between atoms: _502  and  _503
REMARK  204  A    between atoms: _503  and  _504
REMARK  205  A    between atoms: _507  and  _509
REMARK  206  A    between atoms: _509  and  _510
REMARK  207  A    between atoms: _513  and  _515
REMARK  208  A    between atoms: _515  and  _516
REMARK  209  A    between atoms: _515  and  _518
REMARK  210  A    between atoms: _518  and  _519
REMARK  211  A    between atoms: _521  and  _523
REMARK  212  A    between atoms: _523  and  _524
REMARK  213  A    between atoms: _526  and  _528
REMARK  214  A    between atoms: _528  and  _529
REMARK  215  A    between atoms: _528  and  _531
REMARK  216  A    between atoms: _531  and  _532
REMARK  217  A    between atoms: _535  and  _537
REMARK  218  A    between atoms: _537  and  _538
REMARK  219  A    between atoms: _540  and  _542
REMARK  220  A    between atoms: _542  and  _543
REMARK  221  A    between atoms: _542  and  _545
REMARK  222  A    between atoms: _545  and  _546
REMARK  223  A    between atoms: _551  and  _553
REMARK  224  A    between atoms: _553  and  _554
REMARK  225  A    between atoms: _553  and  _556
REMARK  226  A    between atoms: _556  and  _557
REMARK  227  A    between atoms: _557  and  _558
REMARK  228  A    between atoms: _565  and  _566
REMARK  229  A    between atoms: _566  and  _582
REMARK  230  A    between atoms: _567  and  _569
REMARK  231  A    between atoms: _569  and  _570
REMARK  232  A    between atoms: _570  and  _571
REMARK  233  A    between atoms: _575  and  _577
REMARK  234  A    between atoms: _577  and  _578
REMARK  235  A    between atoms: _577  and  _585
REMARK  236  A    between atoms: _578  and  _579
REMARK  237  A    between atoms: _579  and  _580
REMARK  238  A    between atoms: _580  and  _581
REMARK  239  A    between atoms: _581  and  _582
REMARK  240  A    between atoms: _587  and  _589
REMARK  241  A    between atoms: _589  and  _590
REMARK  242  A    between atoms: _589  and  _592
REMARK  243  A    between atoms: _592  and  _593
REMARK  244  A    between atoms: _596  and  _598
REMARK  245  A    between atoms: _598  and  _599
REMARK  246  A    between atoms: _601  and  _603
REMARK  247  A    between atoms: _603  and  _604
REMARK  248  A    between atoms: _607  and  _609
REMARK  249  A    between atoms: _609  and  _610
REMARK  250  A    between atoms: _609  and  _612
REMARK  251  A    between atoms: _612  and  _613
REMARK  252  A    between atoms: _618  and  _619
REMARK                            x       y       z     vdW  Elec       q    Type
REMARK                         _______ _______ _______ _____ _____    ______ ____
ROOT
ATOM      1  O   HOH     1      38.674  24.013  22.610  0.00  0.00    +0.000 OA
ENDROOT
TORSDOF 0
REMARK  Name = ../refined-set-2016/2qrh/2qrh_pocket.pdb
REMARK  252 active torsions:
REMARK  status: ('A' for Active; 'I' for Inactive)
REMARK    1  A    between atoms: _1  and  _3
REMARK    2  A    between atoms: _3  and  _4
REMARK    3  A    between atoms: _3  and  _6
REMARK    4  A    between atoms: _6  and  _7
REMARK    5  A    between atoms: _12  and  _13
REMARK    6  A    between atoms: _15  and  _17
REMARK    7  A    between atoms: _17  and  _18
REMARK    8  A    between atoms: _17  and  _20
REMARK    9  A    between atoms: _20  and  _21
REMARK   10  A    between atoms: _21  and  _22
REMARK   11  A    between atoms: _25  and  _27
REMARK   12  A    between atoms: _27  and  _28
REMARK   13  A    between atoms: _30  and  _32
REMARK   14  A    between atoms: _32  and  _33
REMARK   15  A    between atoms: _32  and  _35
REMARK   16  A    between atoms: _35  and  _36
REMARK   17  A    between atoms: _41  and  _43
REMARK   18  A    between atoms: _43  and  _44
REMARK   19  A    between atoms: _46  and  _48
REMARK   20  A    between atoms: _48  and  _49
REMARK   21  A    between atoms: _51  and  _53
REMARK   22  A    between atoms: _53  and  _54
REMARK   23  A    between atoms: _53  and  _56
REMARK   24  A    between atoms: _56  and  _57
REMARK   25  A    between atoms: _60  and  _62
REMARK   26  A    between atoms: _62  and  _63
REMARK   27  A    between atoms: _65  and  _67
REMARK   28  A    between atoms: _67  and  _68
REMARK   29  A    between atoms: _67  and  _70
REMARK   30  A    between atoms: _70  and  _71
REMARK   31  A    between atoms: _71  and  _72
REMARK   32  A    between atoms: _72  and  _73
REMARK   33  A    between atoms: _82  and  _84
REMARK   34  A    between atoms: _84  and  _85
REMARK   35  A    between atoms: _84  and  _87
REMARK   36  A    between atoms: _87  and  _88
REMARK   37  A    between atoms: _91  and  _93
REMARK   38  A    between atoms: _93  and  _94
REMARK   39  A    between atoms: _97  and  _99
REMARK   40  A    between atoms: _99  and  _100
REMARK   41  A    between atoms: _99  and  _102
REMARK   42  A    between atoms: _102  and  _103
REMARK   43  A    between atoms: _109  and  _111
REMARK   44  A    between atoms: _111  and  _112
REMARK   45  A    between atoms: _111  and  _114
REMARK   46  A    between atoms: _114  and  _115
REMARK   47  A    between atoms: _120  and  _121
REMARK   48  A    between atoms: _124  and  _125
REMARK   49  A    between atoms: _130  and  _132
REMARK   50  A    between atoms: _132  and  _133
REMARK   51  A    between atoms: _132  and  _135
REMARK   52  A    between atoms: _135  and  _136
REMARK   53  A    between atoms: _141  and  _143
REMARK   54  A    between atoms: _143  and  _144
REMARK   55  A    between atoms: _143  and  _146
REMARK   56  A    between atoms: _146  and  _147
REMARK   57  A    between atoms: _150  and  _152
REMARK   58  A    between atoms: _152  and  _153
REMARK   59  A    between atoms: _152  and  _155
REMARK   60  A    between atoms: _155  and  _156
REMARK   61  A    between atoms: _161  and  _163
REMARK   62  A    between atoms: _163  and  _164
REMARK   63  A    between atoms: _163  and  _166
REMARK   64  A    between atoms: _166  and  _167
REMARK   65  A    between atoms: _173  and  _175
REMARK   66  A    between atoms: _175  and  _176
REMARK   67  A    between atoms: _175  and  _178
REMARK   68  A    between atoms: _178  and  _179
REMARK   69  A    between atoms: _185  and  _187
REMARK   70  A    between atoms: _187  and  _188
REMARK   71  A    between atoms: _187  and  _190
REMARK   72  A    between atoms: _190  and  _191
REMARK   73  A    between atoms: _191  and  _192
REMARK   74  A    between atoms: _195  and  _197
REMARK   75  A    between atoms: _197  and  _198
REMARK   76  A    between atoms: _197  and  _200
REMARK   77  A    between atoms: _200  and  _201
REMARK   78  A    between atoms: _201  and  _202
REMARK   79  A    between atoms: _202  and  _203
REMARK   80  A    between atoms: _212  and  _214
REMARK   81  A    between atoms: _214  and  _215
REMARK   82  A    between atoms: _214  and  _217
REMARK   83  A    between atoms: _217  and  _218
REMARK   84  A    between atoms: _223  and  _225
REMARK   85  A    between atoms: _225  and  _226
REMARK   86  A    between atoms: _225  and  _228
REMARK   87  A    between atoms: _228  and  _229
REMARK   88  A    between atoms: _232  and  _234
REMARK   89  A    between atoms: _234  and  _235
REMARK   90  A    between atoms: _234  and  _237
REMARK   91  A    between atoms: _237  and  _238
REMARK   92  A    between atoms: _241  and  _243
REMARK   93  A    between atoms: _243  and  _244
REMARK   94  A    between atoms: _243  and  _246
REMARK   95  A    between atoms: _246  and  _247
REMARK   96  A    between atoms: _252  and  _254
REMARK   97  A    between atoms: _254  and  _255
REMARK   98  A    between atoms: _254  and  _257
REMARK   99  A    between atoms: _257  and  _258
REMARK  100  A    between atoms: _261  and  _263
REMARK  101  A    between atoms: _263  and  _264
REMARK  102  A    between atoms: _263  and  _266
REMARK  103  A    between atoms: _266  and  _267
REMARK  104  A    between atoms: _272  and  _274
REMARK  105  A    between atoms: _274  and  _275
REMARK  106  A    between atoms: _274  and  _277
REMARK  107  A    between atoms: _277  and  _278
REMARK  108  A    between atoms: _283  and  _285
REMARK  109  A    between atoms: _285  and  _286
REMARK  110  A    between atoms: _285  and  _288
REMARK  111  A    between atoms: _288  and  _289
REMARK  112  A    between atoms: _292  and  _294
REMARK  113  A    between atoms: _294  and  _295
REMARK  114  A    between atoms: _294  and  _297
REMARK  115  A    between atoms: _300  and  _302
REMARK  116  A    between atoms: _302  and  _303
REMARK  117  A    between atoms: _302  and  _305
REMARK  118  A    between atoms: _305  and  _306
REMARK  119  A    between atoms: _309  and  _311
REMARK  120  A    between atoms: _311  and  _312
REMARK  121  A    between atoms: _311  and  _314
REMARK  122  A    between atoms: _314  and  _315
REMARK  123  A    between atoms: _315  and  _316
REMARK  124  A    between atoms: _319  and  _321
REMARK  125  A    between atoms: _321  and  _322
REMARK  126  A    between atoms: _325  and  _327
REMARK  127  A    between atoms: _327  and  _328
REMARK  128  A    between atoms: _327  and  _330
REMARK  129  A    between atoms: _330  and  _331
REMARK  130  A    between atoms: _334  and  _336
REMARK  131  A    between atoms: _336  and  _337
REMARK  132  A    between atoms: _336  and  _339
REMARK  133  A    between atoms: _339  and  _340
REMARK  134  A    between atoms: _340  and  _341
REMARK  135  A    between atoms: _344  and  _346
REMARK  136  A    between atoms: _346  and  _347
REMARK  137  A    between atoms: _346  and  _349
REMARK  138  A    between atoms: _349  and  _350
REMARK  139  A    between atoms: _355  and  _357
REMARK  140  A    between atoms: _357  and  _358
REMARK  141  A    between atoms: _360  and  _362
REMARK  142  A    between atoms: _362  and  _363
REMARK  143  A    between atoms: _362  and  _365
REMARK  144  A    between atoms: _368  and  _370
REMARK  145  A    between atoms: _370  and  _371
REMARK  146  A    between atoms: _374  and  _376
REMARK  147  A    between atoms: _376  and  _377
REMARK  148  A    between atoms: _376  and  _379
REMARK  149  A    between atoms: _379  and  _380
REMARK  150  A    between atoms: _385  and  _387
REMARK  151  A    between atoms: _387  and  _388
REMARK  152  A    between atoms: _387  and  _390
REMARK  153  A    between atoms: _390  and  _391
REMARK  154  A    between atoms: _391  and  _392
REMARK  155  A    between atoms: _392  and  _393
REMARK  156  A    between atoms: _393  and  _394
REMARK  157  A    between atoms: _398  and  _400
REMARK  158  A    between atoms: _400  and  _401
REMARK  159  A    between atoms: _400  and  _403
REMARK  160  A    between atoms: _403  and  _404
REMARK  161  A    between atoms: _407  and  _409
REMARK  162  A    between atoms: _409  and  _410
REMARK  163  A    between atoms: _409  and  _412
REMARK  164  A    between atoms: _412  and  _413
REMARK  165  A    between atoms: _418  and  _420
REMARK  166  A    between atoms: _420  and  _421
REMARK  167  A    between atoms: _423  and  _425
REMARK  168  A    between atoms: _425  and  _426
REMARK  169  A    between atoms: _425  and  _428
REMARK  170  A    between atoms: _428  and  _429
REMARK  171  A    between atoms: _429  and  _430
REMARK  172  A    between atoms: _430  and  _431
REMARK  173  A    between atoms: _431  and  _432
REMARK  174  A    between atoms: _436  and  _438
REMARK  175  A    between atoms: _438  and  _439
REMARK  176  A    between atoms: _438  and  _441
REMARK  177  A    between atoms: _441  and  _442
REMARK  178  A    between atoms: _442  and  _443
REMARK  179  A    between atoms: _443  and  _444
REMARK  180  A    between atoms: _453  and  _455
REMARK  181  A    between atoms: _455  and  _456
REMARK  182  A    between atoms: _455  and  _458
REMARK  183  A    between atoms: _458  and  _459
REMARK  184  A    between atoms: _464  and  _465
REMARK  185  A    between atoms: _467  and  _469
REMARK  186  A    between atoms: _469  and  _470
REMARK  187  A    between atoms: _469  and  _472
REMARK  188  A    between atoms: _472  and  _473
REMARK  189  A    between atoms: _473  and  _474
REMARK  190  A    between atoms: _474  and  _475
REMARK  191  A    between atoms: _475  and  _476
REMARK  192  A    between atoms: _480  and  _482
REMARK  193  A    between atoms: _482  and  _483
REMARK  194  A    between atoms: _482  and  _485
REMARK  195  A    between atoms: _485  and  _486
REMARK  196  A    between atoms: _488  and  _490
REMARK  197  A    between atoms: _490  and  _491
REMARK  198  A    between atoms: _490  and  _493
REMARK  199  A    between atoms: _493  and  _494
REMARK  200  A    between atoms: _497  and  _499
REMARK  201  A    between atoms: _499  and  _500
REMARK  202  A    between atoms: _499  and  _502
REMARK  203  A    between atoms: _502  and  _503
REMARK  204  A    between atoms: _503  and  _504
REMARK  205  A    between atoms: _507  and  _509
REMARK  206  A    between atoms: _509  and  _510
REMARK  207  A    between atoms: _513  and  _515
REMARK  208  A    between atoms: _515  and  _516
REMARK  209  A    between atoms: _515  and  _518
REMARK  210  A    between atoms: _518  and  _519
REMARK  211  A    between atoms: _521  and  _523
REMARK  212  A    between atoms: _523  and  _524
REMARK  213  A    between atoms: _526  and  _528
REMARK  214  A    between atoms: _528  and  _529
REMARK  215  A    between atoms: _528  and  _531
REMARK  216  A    between atoms: _531  and  _532
REMARK  217  A    between atoms: _535  and  _537
REMARK  218  A    between atoms: _537  and  _538
REMARK  219  A    between atoms: _540  and  _542
REMARK  220  A    between atoms: _542  and  _543
REMARK  221  A    between atoms: _542  and  _545
REMARK  222  A    between atoms: _545  and  _546
REMARK  223  A    between atoms: _551  and  _553
REMARK  224  A    between atoms: _553  and  _554
REMARK  225  A    between atoms: _553  and  _556
REMARK  226  A    between atoms: _556  and  _557
REMARK  227  A    between atoms: _557  and  _558
REMARK  228  A    between atoms: _565  and  _566
REMARK  229  A    between atoms: _566  and  _582
REMARK  230  A    between atoms: _567  and  _569
REMARK  231  A    between atoms: _569  and  _570
REMARK  232  A    between atoms: _570  and  _571
REMARK  233  A    between atoms: _575  and  _577
REMARK  234  A    between atoms: _577  and  _578
REMARK  235  A    between atoms: _577  and  _585
REMARK  236  A    between atoms: _578  and  _579
REMARK  237  A    between atoms: _579  and  _580
REMARK  238  A    between atoms: _580  and  _581
REMARK  239  A    between atoms: _581  and  _582
REMARK  240  A    between atoms: _587  and  _589
REMARK  241  A    between atoms: _589  and  _590
REMARK  242  A    between atoms: _589  and  _592
REMARK  243  A    between atoms: _592  and  _593
REMARK  244  A    between atoms: _596  and  _598
REMARK  245  A    between atoms: _598  and  _599
REMARK  246  A    between atoms: _601  and  _603
REMARK  247  A    between atoms: _603  and  _604
REMARK  248  A    between atoms: _607  and  _609
REMARK  249  A    between atoms: _609  and  _610
REMARK  250  A    between atoms: _609  and  _612
REMARK  251  A    between atoms: _612  and  _613
REMARK  252  A    between atoms: _618  and  _619
REMARK                            x       y       z     vdW  Elec       q    Type
REMARK                         _______ _______ _______ _____ _____    ______ ____
ROOT
ATOM      1  O   HOH     1      40.984  26.296  37.382  0.00  0.00    +0.000 OA
ENDROOT
TORSDOF 0
REMARK  Name = ../refined-set-2016/2qrh/2qrh_pocket.pdb
REMARK  252 active torsions:
REMARK  status: ('A' for Active; 'I' for Inactive)
REMARK    1  A    between atoms: _1  and  _3
REMARK    2  A    between atoms: _3  and  _4
REMARK    3  A    between atoms: _3  and  _6
REMARK    4  A    between atoms: _6  and  _7
REMARK    5  A    between atoms: _12  and  _13
REMARK    6  A    between atoms: _15  and  _17
REMARK    7  A    between atoms: _17  and  _18
REMARK    8  A    between atoms: _17  and  _20
REMARK    9  A    between atoms: _20  and  _21
REMARK   10  A    between atoms: _21  and  _22
REMARK   11  A    between atoms: _25  and  _27
REMARK   12  A    between atoms: _27  and  _28
REMARK   13  A    between atoms: _30  and  _32
REMARK   14  A    between atoms: _32  and  _33
REMARK   15  A    between atoms: _32  and  _35
REMARK   16  A    between atoms: _35  and  _36
REMARK   17  A    between atoms: _41  and  _43
REMARK   18  A    between atoms: _43  and  _44
REMARK   19  A    between atoms: _46  and  _48
REMARK   20  A    between atoms: _48  and  _49
REMARK   21  A    between atoms: _51  and  _53
REMARK   22  A    between atoms: _53  and  _54
REMARK   23  A    between atoms: _53  and  _56
REMARK   24  A    between atoms: _56  and  _57
REMARK   25  A    between atoms: _60  and  _62
REMARK   26  A    between atoms: _62  and  _63
REMARK   27  A    between atoms: _65  and  _67
REMARK   28  A    between atoms: _67  and  _68
REMARK   29  A    between atoms: _67  and  _70
REMARK   30  A    between atoms: _70  and  _71
REMARK   31  A    between atoms: _71  and  _72
REMARK   32  A    between atoms: _72  and  _73
REMARK   33  A    between atoms: _82  and  _84
REMARK   34  A    between atoms: _84  and  _85
REMARK   35  A    between atoms: _84  and  _87
REMARK   36  A    between atoms: _87  and  _88
REMARK   37  A    between atoms: _91  and  _93
REMARK   38  A    between atoms: _93  and  _94
REMARK   39  A    between atoms: _97  and  _99
REMARK   40  A    between atoms: _99  and  _100
REMARK   41  A    between atoms: _99  and  _102
REMARK   42  A    between atoms: _102  and  _103
REMARK   43  A    between atoms: _109  and  _111
REMARK   44  A    between atoms: _111  and  _112
REMARK   45  A    between atoms: _111  and  _114
REMARK   46  A    between atoms: _114  and  _115
REMARK   47  A    between atoms: _120  and  _121
REMARK   48  A    between atoms: _124  and  _125
REMARK   49  A    between atoms: _130  and  _132
REMARK   50  A    between atoms: _132  and  _133
REMARK   51  A    between atoms: _132  and  _135
REMARK   52  A    between atoms: _135  and  _136
REMARK   53  A    between atoms: _141  and  _143
REMARK   54  A    between atoms: _143  and  _144
REMARK   55  A    between atoms: _143  and  _146
REMARK   56  A    between atoms: _146  and  _147
REMARK   57  A    between atoms: _150  and  _152
REMARK   58  A    between atoms: _152  and  _153
REMARK   59  A    between atoms: _152  and  _155
REMARK   60  A    between atoms: _155  and  _156
REMARK   61  A    between atoms: _161  and  _163
REMARK   62  A    between atoms: _163  and  _164
REMARK   63  A    between atoms: _163  and  _166
REMARK   64  A    between atoms: _166  and  _167
REMARK   65  A    between atoms: _173  and  _175
REMARK   66  A    between atoms: _175  and  _176
REMARK   67  A    between atoms: _175  and  _178
REMARK   68  A    between atoms: _178  and  _179
REMARK   69  A    between atoms: _185  and  _187
REMARK   70  A    between atoms: _187  and  _188
REMARK   71  A    between atoms: _187  and  _190
REMARK   72  A    between atoms: _190  and  _191
REMARK   73  A    between atoms: _191  and  _192
REMARK   74  A    between atoms: _195  and  _197
REMARK   75  A    between atoms: _197  and  _198
REMARK   76  A    between atoms: _197  and  _200
REMARK   77  A    between atoms: _200  and  _201
REMARK   78  A    between atoms: _201  and  _202
REMARK   79  A    between atoms: _202  and  _203
REMARK   80  A    between atoms: _212  and  _214
REMARK   81  A    between atoms: _214  and  _215
REMARK   82  A    between atoms: _214  and  _217
REMARK   83  A    between atoms: _217  and  _218
REMARK   84  A    between atoms: _223  and  _225
REMARK   85  A    between atoms: _225  and  _226
REMARK   86  A    between atoms: _225  and  _228
REMARK   87  A    between atoms: _228  and  _229
REMARK   88  A    between atoms: _232  and  _234
REMARK   89  A    between atoms: _234  and  _235
REMARK   90  A    between atoms: _234  and  _237
REMARK   91  A    between atoms: _237  and  _238
REMARK   92  A    between atoms: _241  and  _243
REMARK   93  A    between atoms: _243  and  _244
REMARK   94  A    between atoms: _243  and  _246
REMARK   95  A    between atoms: _246  and  _247
REMARK   96  A    between atoms: _252  and  _254
REMARK   97  A    between atoms: _254  and  _255
REMARK   98  A    between atoms: _254  and  _257
REMARK   99  A    between atoms: _257  and  _258
REMARK  100  A    between atoms: _261  and  _263
REMARK  101  A    between atoms: _263  and  _264
REMARK  102  A    between atoms: _263  and  _266
REMARK  103  A    between atoms: _266  and  _267
REMARK  104  A    between atoms: _272  and  _274
REMARK  105  A    between atoms: _274  and  _275
REMARK  106  A    between atoms: _274  and  _277
REMARK  107  A    between atoms: _277  and  _278
REMARK  108  A    between atoms: _283  and  _285
REMARK  109  A    between atoms: _285  and  _286
REMARK  110  A    between atoms: _285  and  _288
REMARK  111  A    between atoms: _288  and  _289
REMARK  112  A    between atoms: _292  and  _294
REMARK  113  A    between atoms: _294  and  _295
REMARK  114  A    between atoms: _294  and  _297
REMARK  115  A    between atoms: _300  and  _302
REMARK  116  A    between atoms: _302  and  _303
REMARK  117  A    between atoms: _302  and  _305
REMARK  118  A    between atoms: _305  and  _306
REMARK  119  A    between atoms: _309  and  _311
REMARK  120  A    between atoms: _311  and  _312
REMARK  121  A    between atoms: _311  and  _314
REMARK  122  A    between atoms: _314  and  _315
REMARK  123  A    between atoms: _315  and  _316
REMARK  124  A    between atoms: _319  and  _321
REMARK  125  A    between atoms: _321  and  _322
REMARK  126  A    between atoms: _325  and  _327
REMARK  127  A    between atoms: _327  and  _328
REMARK  128  A    between atoms: _327  and  _330
REMARK  129  A    between atoms: _330  and  _331
REMARK  130  A    between atoms: _334  and  _336
REMARK  131  A    between atoms: _336  and  _337
REMARK  132  A    between atoms: _336  and  _339
REMARK  133  A    between atoms: _339  and  _340
REMARK  134  A    between atoms: _340  and  _341
REMARK  135  A    between atoms: _344  and  _346
REMARK  136  A    between atoms: _346  and  _347
REMARK  137  A    between atoms: _346  and  _349
REMARK  138  A    between atoms: _349  and  _350
REMARK  139  A    between atoms: _355  and  _357
REMARK  140  A    between atoms: _357  and  _358
REMARK  141  A    between atoms: _360  and  _362
REMARK  142  A    between atoms: _362  and  _363
REMARK  143  A    between atoms: _362  and  _365
REMARK  144  A    between atoms: _368  and  _370
REMARK  145  A    between atoms: _370  and  _371
REMARK  146  A    between atoms: _374  and  _376
REMARK  147  A    between atoms: _376  and  _377
REMARK  148  A    between atoms: _376  and  _379
REMARK  149  A    between atoms: _379  and  _380
REMARK  150  A    between atoms: _385  and  _387
REMARK  151  A    between atoms: _387  and  _388
REMARK  152  A    between atoms: _387  and  _390
REMARK  153  A    between atoms: _390  and  _391
REMARK  154  A    between atoms: _391  and  _392
REMARK  155  A    between atoms: _392  and  _393
REMARK  156  A    between atoms: _393  and  _394
REMARK  157  A    between atoms: _398  and  _400
REMARK  158  A    between atoms: _400  and  _401
REMARK  159  A    between atoms: _400  and  _403
REMARK  160  A    between atoms: _403  and  _404
REMARK  161  A    between atoms: _407  and  _409
REMARK  162  A    between atoms: _409  and  _410
REMARK  163  A    between atoms: _409  and  _412
REMARK  164  A    between atoms: _412  and  _413
REMARK  165  A    between atoms: _418  and  _420
REMARK  166  A    between atoms: _420  and  _421
REMARK  167  A    between atoms: _423  and  _425
REMARK  168  A    between atoms: _425  and  _426
REMARK  169  A    between atoms: _425  and  _428
REMARK  170  A    between atoms: _428  and  _429
REMARK  171  A    between atoms: _429  and  _430
REMARK  172  A    between atoms: _430  and  _431
REMARK  173  A    between atoms: _431  and  _432
REMARK  174  A    between atoms: _436  and  _438
REMARK  175  A    between atoms: _438  and  _439
REMARK  176  A    between atoms: _438  and  _441
REMARK  177  A    between atoms: _441  and  _442
REMARK  178  A    between atoms: _442  and  _443
REMARK  179  A    between atoms: _443  and  _444
REMARK  180  A    between atoms: _453  and  _455
REMARK  181  A    between atoms: _455  and  _456
REMARK  182  A    between atoms: _455  and  _458
REMARK  183  A    between atoms: _458  and  _459
REMARK  184  A    between atoms: _464  and  _465
REMARK  185  A    between atoms: _467  and  _469
REMARK  186  A    between atoms: _469  and  _470
REMARK  187  A    between atoms: _469  and  _472
REMARK  188  A    between atoms: _472  and  _473
REMARK  189  A    between atoms: _473  and  _474
REMARK  190  A    between atoms: _474  and  _475
REMARK  191  A    between atoms: _475  and  _476
REMARK  192  A    between atoms: _480  and  _482
REMARK  193  A    between atoms: _482  and  _483
REMARK  194  A    between atoms: _482  and  _485
REMARK  195  A    between atoms: _485  and  _486
REMARK  196  A    between atoms: _488  and  _490
REMARK  197  A    between atoms: _490  and  _491
REMARK  198  A    between atoms: _490  and  _493
REMARK  199  A    between atoms: _493  and  _494
REMARK  200  A    between atoms: _497  and  _499
REMARK  201  A    between atoms: _499  and  _500
REMARK  202  A    between atoms: _499  and  _502
REMARK  203  A    between atoms: _502  and  _503
REMARK  204  A    between atoms: _503  and  _504
REMARK  205  A    between atoms: _507  and  _509
REMARK  206  A    between atoms: _509  and  _510
REMARK  207  A    between atoms: _513  and  _515
REMARK  208  A    between atoms: _515  and  _516
REMARK  209  A    between atoms: _515  and  _518
REMARK  210  A    between atoms: _518  and  _519
REMARK  211  A    between atoms: _521  and  _523
REMARK  212  A    between atoms: _523  and  _524
REMARK  213  A    between atoms: _526  and  _528
REMARK  214  A    between atoms: _528  and  _529
REMARK  215  A    between atoms: _528  and  _531
REMARK  216  A    between atoms: _531  and  _532
REMARK  217  A    between atoms: _535  and  _537
REMARK  218  A    between atoms: _537  and  _538
REMARK  219  A    between atoms: _540  and  _542
REMARK  220  A    between atoms: _542  and  _543
REMARK  221  A    between atoms: _542  and  _545
REMARK  222  A    between atoms: _545  and  _546
REMARK  223  A    between atoms: _551  and  _553
REMARK  224  A    between atoms: _553  and  _554
REMARK  225  A    between atoms: _553  and  _556
REMARK  226  A    between atoms: _556  and  _557
REMARK  227  A    between atoms: _557  and  _558
REMARK  228  A    between atoms: _565  and  _566
REMARK  229  A    between atoms: _566  and  _582
REMARK  230  A    between atoms: _567  and  _569
REMARK  231  A    between atoms: _569  and  _570
REMARK  232  A    between atoms: _570  and  _571
REMARK  233  A    between atoms: _575  and  _577
REMARK  234  A    between atoms: _577  and  _578
REMARK  235  A    between atoms: _577  and  _585
REMARK  236  A    between atoms: _578  and  _579
REMARK  237  A    between atoms: _579  and  _580
REMARK  238  A    between atoms: _580  and  _581
REMARK  239  A    between atoms: _581  and  _582
REMARK  240  A    between atoms: _587  and  _589
REMARK  241  A    between atoms: _589  and  _590
REMARK  242  A    between atoms: _589  and  _592
REMARK  243  A    between atoms: _592  and  _593
REMARK  244  A    between atoms: _596  and  _598
REMARK  245  A    between atoms: _598  and  _599
REMARK  246  A    between atoms: _601  and  _603
REMARK  247  A    between atoms: _603  and  _604
REMARK  248  A    between atoms: _607  and  _609
REMARK  249  A    between atoms: _609  and  _610
REMARK  250  A    between atoms: _609  and  _612
REMARK  251  A    between atoms: _612  and  _613
REMARK  252  A    between atoms: _618  and  _619
REMARK                            x       y       z     vdW  Elec       q    Type
REMARK                         _______ _______ _______ _____ _____    ______ ____
ROOT
ATOM      1  O   HOH     1      36.727  22.292  18.116  0.00  0.00    +0.000 OA
ENDROOT
TORSDOF 0
REMARK  Name = ../refined-set-2016/2qrh/2qrh_pocket.pdb
REMARK  252 active torsions:
REMARK  status: ('A' for Active; 'I' for Inactive)
REMARK    1  A    between atoms: _1  and  _3
REMARK    2  A    between atoms: _3  and  _4
REMARK    3  A    between atoms: _3  and  _6
REMARK    4  A    between atoms: _6  and  _7
REMARK    5  A    between atoms: _12  and  _13
REMARK    6  A    between atoms: _15  and  _17
REMARK    7  A    between atoms: _17  and  _18
REMARK    8  A    between atoms: _17  and  _20
REMARK    9  A    between atoms: _20  and  _21
REMARK   10  A    between atoms: _21  and  _22
REMARK   11  A    between atoms: _25  and  _27
REMARK   12  A    between atoms: _27  and  _28
REMARK   13  A    between atoms: _30  and  _32
REMARK   14  A    between atoms: _32  and  _33
REMARK   15  A    between atoms: _32  and  _35
REMARK   16  A    between atoms: _35  and  _36
REMARK   17  A    between atoms: _41  and  _43
REMARK   18  A    between atoms: _43  and  _44
REMARK   19  A    between atoms: _46  and  _48
REMARK   20  A    between atoms: _48  and  _49
REMARK   21  A    between atoms: _51  and  _53
REMARK   22  A    between atoms: _53  and  _54
REMARK   23  A    between atoms: _53  and  _56
REMARK   24  A    between atoms: _56  and  _57
REMARK   25  A    between atoms: _60  and  _62
REMARK   26  A    between atoms: _62  and  _63
REMARK   27  A    between atoms: _65  and  _67
REMARK   28  A    between atoms: _67  and  _68
REMARK   29  A    between atoms: _67  and  _70
REMARK   30  A    between atoms: _70  and  _71
REMARK   31  A    between atoms: _71  and  _72
REMARK   32  A    between atoms: _72  and  _73
REMARK   33  A    between atoms: _82  and  _84
REMARK   34  A    between atoms: _84  and  _85
REMARK   35  A    between atoms: _84  and  _87
REMARK   36  A    between atoms: _87  and  _88
REMARK   37  A    between atoms: _91  and  _93
REMARK   38  A    between atoms: _93  and  _94
REMARK   39  A    between atoms: _97  and  _99
REMARK   40  A    between atoms: _99  and  _100
REMARK   41  A    between atoms: _99  and  _102
REMARK   42  A    between atoms: _102  and  _103
REMARK   43  A    between atoms: _109  and  _111
REMARK   44  A    between atoms: _111  and  _112
REMARK   45  A    between atoms: _111  and  _114
REMARK   46  A    between atoms: _114  and  _115
REMARK   47  A    between atoms: _120  and  _121
REMARK   48  A    between atoms: _124  and  _125
REMARK   49  A    between atoms: _130  and  _132
REMARK   50  A    between atoms: _132  and  _133
REMARK   51  A    between atoms: _132  and  _135
REMARK   52  A    between atoms: _135  and  _136
REMARK   53  A    between atoms: _141  and  _143
REMARK   54  A    between atoms: _143  and  _144
REMARK   55  A    between atoms: _143  and  _146
REMARK   56  A    between atoms: _146  and  _147
REMARK   57  A    between atoms: _150  and  _152
REMARK   58  A    between atoms: _152  and  _153
REMARK   59  A    between atoms: _152  and  _155
REMARK   60  A    between atoms: _155  and  _156
REMARK   61  A    between atoms: _161  and  _163
REMARK   62  A    between atoms: _163  and  _164
REMARK   63  A    between atoms: _163  and  _166
REMARK   64  A    between atoms: _166  and  _167
REMARK   65  A    between atoms: _173  and  _175
REMARK   66  A    between atoms: _175  and  _176
REMARK   67  A    between atoms: _175  and  _178
REMARK   68  A    between atoms: _178  and  _179
REMARK   69  A    between atoms: _185  and  _187
REMARK   70  A    between atoms: _187  and  _188
REMARK   71  A    between atoms: _187  and  _190
REMARK   72  A    between atoms: _190  and  _191
REMARK   73  A    between atoms: _191  and  _192
REMARK   74  A    between atoms: _195  and  _197
REMARK   75  A    between atoms: _197  and  _198
REMARK   76  A    between atoms: _197  and  _200
REMARK   77  A    between atoms: _200  and  _201
REMARK   78  A    between atoms: _201  and  _202
REMARK   79  A    between atoms: _202  and  _203
REMARK   80  A    between atoms: _212  and  _214
REMARK   81  A    between atoms: _214  and  _215
REMARK   82  A    between atoms: _214  and  _217
REMARK   83  A    between atoms: _217  and  _218
REMARK   84  A    between atoms: _223  and  _225
REMARK   85  A    between atoms: _225  and  _226
REMARK   86  A    between atoms: _225  and  _228
REMARK   87  A    between atoms: _228  and  _229
REMARK   88  A    between atoms: _232  and  _234
REMARK   89  A    between atoms: _234  and  _235
REMARK   90  A    between atoms: _234  and  _237
REMARK   91  A    between atoms: _237  and  _238
REMARK   92  A    between atoms: _241  and  _243
REMARK   93  A    between atoms: _243  and  _244
REMARK   94  A    between atoms: _243  and  _246
REMARK   95  A    between atoms: _246  and  _247
REMARK   96  A    between atoms: _252  and  _254
REMARK   97  A    between atoms: _254  and  _255
REMARK   98  A    between atoms: _254  and  _257
REMARK   99  A    between atoms: _257  and  _258
REMARK  100  A    between atoms: _261  and  _263
REMARK  101  A    between atoms: _263  and  _264
REMARK  102  A    between atoms: _263  and  _266
REMARK  103  A    between atoms: _266  and  _267
REMARK  104  A    between atoms: _272  and  _274
REMARK  105  A    between atoms: _274  and  _275
REMARK  106  A    between atoms: _274  and  _277
REMARK  107  A    between atoms: _277  and  _278
REMARK  108  A    between atoms: _283  and  _285
REMARK  109  A    between atoms: _285  and  _286
REMARK  110  A    between atoms: _285  and  _288
REMARK  111  A    between atoms: _288  and  _289
REMARK  112  A    between atoms: _292  and  _294
REMARK  113  A    between atoms: _294  and  _295
REMARK  114  A    between atoms: _294  and  _297
REMARK  115  A    between atoms: _300  and  _302
REMARK  116  A    between atoms: _302  and  _303
REMARK  117  A    between atoms: _302  and  _305
REMARK  118  A    between atoms: _305  and  _306
REMARK  119  A    between atoms: _309  and  _311
REMARK  120  A    between atoms: _311  and  _312
REMARK  121  A    between atoms: _311  and  _314
REMARK  122  A    between atoms: _314  and  _315
REMARK  123  A    between atoms: _315  and  _316
REMARK  124  A    between atoms: _319  and  _321
REMARK  125  A    between atoms: _321  and  _322
REMARK  126  A    between atoms: _325  and  _327
REMARK  127  A    between atoms: _327  and  _328
REMARK  128  A    between atoms: _327  and  _330
REMARK  129  A    between atoms: _330  and  _331
REMARK  130  A    between atoms: _334  and  _336
REMARK  131  A    between atoms: _336  and  _337
REMARK  132  A    between atoms: _336  and  _339
REMARK  133  A    between atoms: _339  and  _340
REMARK  134  A    between atoms: _340  and  _341
REMARK  135  A    between atoms: _344  and  _346
REMARK  136  A    between atoms: _346  and  _347
REMARK  137  A    between atoms: _346  and  _349
REMARK  138  A    between atoms: _349  and  _350
REMARK  139  A    between atoms: _355  and  _357
REMARK  140  A    between atoms: _357  and  _358
REMARK  141  A    between atoms: _360  and  _362
REMARK  142  A    between atoms: _362  and  _363
REMARK  143  A    between atoms: _362  and  _365
REMARK  144  A    between atoms: _368  and  _370
REMARK  145  A    between atoms: _370  and  _371
REMARK  146  A    between atoms: _374  and  _376
REMARK  147  A    between atoms: _376  and  _377
REMARK  148  A    between atoms: _376  and  _379
REMARK  149  A    between atoms: _379  and  _380
REMARK  150  A    between atoms: _385  and  _387
REMARK  151  A    between atoms: _387  and  _388
REMARK  152  A    between atoms: _387  and  _390
REMARK  153  A    between atoms: _390  and  _391
REMARK  154  A    between atoms: _391  and  _392
REMARK  155  A    between atoms: _392  and  _393
REMARK  156  A    between atoms: _393  and  _394
REMARK  157  A    between atoms: _398  and  _400
REMARK  158  A    between atoms: _400  and  _401
REMARK  159  A    between atoms: _400  and  _403
REMARK  160  A    between atoms: _403  and  _404
REMARK  161  A    between atoms: _407  and  _409
REMARK  162  A    between atoms: _409  and  _410
REMARK  163  A    between atoms: _409  and  _412
REMARK  164  A    between atoms: _412  and  _413
REMARK  165  A    between atoms: _418  and  _420
REMARK  166  A    between atoms: _420  and  _421
REMARK  167  A    between atoms: _423  and  _425
REMARK  168  A    between atoms: _425  and  _426
REMARK  169  A    between atoms: _425  and  _428
REMARK  170  A    between atoms: _428  and  _429
REMARK  171  A    between atoms: _429  and  _430
REMARK  172  A    between atoms: _430  and  _431
REMARK  173  A    between atoms: _431  and  _432
REMARK  174  A    between atoms: _436  and  _438
REMARK  175  A    between atoms: _438  and  _439
REMARK  176  A    between atoms: _438  and  _441
REMARK  177  A    between atoms: _441  and  _442
REMARK  178  A    between atoms: _442  and  _443
REMARK  179  A    between atoms: _443  and  _444
REMARK  180  A    between atoms: _453  and  _455
REMARK  181  A    between atoms: _455  and  _456
REMARK  182  A    between atoms: _455  and  _458
REMARK  183  A    between atoms: _458  and  _459
REMARK  184  A    between atoms: _464  and  _465
REMARK  185  A    between atoms: _467  and  _469
REMARK  186  A    between atoms: _469  and  _470
REMARK  187  A    between atoms: _469  and  _472
REMARK  188  A    between atoms: _472  and  _473
REMARK  189  A    between atoms: _473  and  _474
REMARK  190  A    between atoms: _474  and  _475
REMARK  191  A    between atoms: _475  and  _476
REMARK  192  A    between atoms: _480  and  _482
REMARK  193  A    between atoms: _482  and  _483
REMARK  194  A    between atoms: _482  and  _485
REMARK  195  A    between atoms: _485  and  _486
REMARK  196  A    between atoms: _488  and  _490
REMARK  197  A    between atoms: _490  and  _491
REMARK  198  A    between atoms: _490  and  _493
REMARK  199  A    between atoms: _493  and  _494
REMARK  200  A    between atoms: _497  and  _499
REMARK  201  A    between atoms: _499  and  _500
REMARK  202  A    between atoms: _499  and  _502
REMARK  203  A    between atoms: _502  and  _503
REMARK  204  A    between atoms: _503  and  _504
REMARK  205  A    between atoms: _507  and  _509
REMARK  206  A    between atoms: _509  and  _510
REMARK  207  A    between atoms: _513  and  _515
REMARK  208  A    between atoms: _515  and  _516
REMARK  209  A    between atoms: _515  and  _518
REMARK  210  A    between atoms: _518  and  _519
REMARK  211  A    between atoms: _521  and  _523
REMARK  212  A    between atoms: _523  and  _524
REMARK  213  A    between atoms: _526  and  _528
REMARK  214  A    between atoms: _528  and  _529
REMARK  215  A    between atoms: _528  and  _531
REMARK  216  A    between atoms: _531  and  _532
REMARK  217  A    between atoms: _535  and  _537
REMARK  218  A    between atoms: _537  and  _538
REMARK  219  A    between atoms: _540  and  _542
REMARK  220  A    between atoms: _542  and  _543
REMARK  221  A    between atoms: _542  and  _545
REMARK  222  A    between atoms: _545  and  _546
REMARK  223  A    between atoms: _551  and  _553
REMARK  224  A    between atoms: _553  and  _554
REMARK  225  A    between atoms: _553  and  _556
REMARK  226  A    between atoms: _556  and  _557
REMARK  227  A    between atoms: _557  and  _558
REMARK  228  A    between atoms: _565  and  _566
REMARK  229  A    between atoms: _566  and  _582
REMARK  230  A    between atoms: _567  and  _569
REMARK  231  A    between atoms: _569  and  _570
REMARK  232  A    between atoms: _570  and  _571
REMARK  233  A    between atoms: _575  and  _577
REMARK  234  A    between atoms: _577  and  _578
REMARK  235  A    between atoms: _577  and  _585
REMARK  236  A    between atoms: _578  and  _579
REMARK  237  A    between atoms: _579  and  _580
REMARK  238  A    between atoms: _580  and  _581
REMARK  239  A    between atoms: _581  and  _582
REMARK  240  A    between atoms: _587  and  _589
REMARK  241  A    between atoms: _589  and  _590
REMARK  242  A    between atoms: _589  and  _592
REMARK  243  A    between atoms: _592  and  _593
REMARK  244  A    between atoms: _596  and  _598
REMARK  245  A    between atoms: _598  and  _599
REMARK  246  A    between atoms: _601  and  _603
REMARK  247  A    between atoms: _603  and  _604
REMARK  248  A    between atoms: _607  and  _609
REMARK  249  A    between atoms: _609  and  _610
REMARK  250  A    between atoms: _609  and  _612
REMARK  251  A    between atoms: _612  and  _613
REMARK  252  A    between atoms: _618  and  _619
REMARK                            x       y       z     vdW  Elec       q    Type
REMARK                         _______ _______ _______ _____ _____    ______ ____
ROOT
ATOM      1  O   HOH     1      29.423  26.161  18.343  0.00  0.00    +0.000 OA
ENDROOT
TORSDOF 0
REMARK  Name = ../refined-set-2016/2qrh/2qrh_pocket.pdb
REMARK  252 active torsions:
REMARK  status: ('A' for Active; 'I' for Inactive)
REMARK    1  A    between atoms: _1  and  _3
REMARK    2  A    between atoms: _3  and  _4
REMARK    3  A    between atoms: _3  and  _6
REMARK    4  A    between atoms: _6  and  _7
REMARK    5  A    between atoms: _12  and  _13
REMARK    6  A    between atoms: _15  and  _17
REMARK    7  A    between atoms: _17  and  _18
REMARK    8  A    between atoms: _17  and  _20
REMARK    9  A    between atoms: _20  and  _21
REMARK   10  A    between atoms: _21  and  _22
REMARK   11  A    between atoms: _25  and  _27
REMARK   12  A    between atoms: _27  and  _28
REMARK   13  A    between atoms: _30  and  _32
REMARK   14  A    between atoms: _32  and  _33
REMARK   15  A    between atoms: _32  and  _35
REMARK   16  A    between atoms: _35  and  _36
REMARK   17  A    between atoms: _41  and  _43
REMARK   18  A    between atoms: _43  and  _44
REMARK   19  A    between atoms: _46  and  _48
REMARK   20  A    between atoms: _48  and  _49
REMARK   21  A    between atoms: _51  and  _53
REMARK   22  A    between atoms: _53  and  _54
REMARK   23  A    between atoms: _53  and  _56
REMARK   24  A    between atoms: _56  and  _57
REMARK   25  A    between atoms: _60  and  _62
REMARK   26  A    between atoms: _62  and  _63
REMARK   27  A    between atoms: _65  and  _67
REMARK   28  A    between atoms: _67  and  _68
REMARK   29  A    between atoms: _67  and  _70
REMARK   30  A    between atoms: _70  and  _71
REMARK   31  A    between atoms: _71  and  _72
REMARK   32  A    between atoms: _72  and  _73
REMARK   33  A    between atoms: _82  and  _84
REMARK   34  A    between atoms: _84  and  _85
REMARK   35  A    between atoms: _84  and  _87
REMARK   36  A    between atoms: _87  and  _88
REMARK   37  A    between atoms: _91  and  _93
REMARK   38  A    between atoms: _93  and  _94
REMARK   39  A    between atoms: _97  and  _99
REMARK   40  A    between atoms: _99  and  _100
REMARK   41  A    between atoms: _99  and  _102
REMARK   42  A    between atoms: _102  and  _103
REMARK   43  A    between atoms: _109  and  _111
REMARK   44  A    between atoms: _111  and  _112
REMARK   45  A    between atoms: _111  and  _114
REMARK   46  A    between atoms: _114  and  _115
REMARK   47  A    between atoms: _120  and  _121
REMARK   48  A    between atoms: _124  and  _125
REMARK   49  A    between atoms: _130  and  _132
REMARK   50  A    between atoms: _132  and  _133
REMARK   51  A    between atoms: _132  and  _135
REMARK   52  A    between atoms: _135  and  _136
REMARK   53  A    between atoms: _141  and  _143
REMARK   54  A    between atoms: _143  and  _144
REMARK   55  A    between atoms: _143  and  _146
REMARK   56  A    between atoms: _146  and  _147
REMARK   57  A    between atoms: _150  and  _152
REMARK   58  A    between atoms: _152  and  _153
REMARK   59  A    between atoms: _152  and  _155
REMARK   60  A    between atoms: _155  and  _156
REMARK   61  A    between atoms: _161  and  _163
REMARK   62  A    between atoms: _163  and  _164
REMARK   63  A    between atoms: _163  and  _166
REMARK   64  A    between atoms: _166  and  _167
REMARK   65  A    between atoms: _173  and  _175
REMARK   66  A    between atoms: _175  and  _176
REMARK   67  A    between atoms: _175  and  _178
REMARK   68  A    between atoms: _178  and  _179
REMARK   69  A    between atoms: _185  and  _187
REMARK   70  A    between atoms: _187  and  _188
REMARK   71  A    between atoms: _187  and  _190
REMARK   72  A    between atoms: _190  and  _191
REMARK   73  A    between atoms: _191  and  _192
REMARK   74  A    between atoms: _195  and  _197
REMARK   75  A    between atoms: _197  and  _198
REMARK   76  A    between atoms: _197  and  _200
REMARK   77  A    between atoms: _200  and  _201
REMARK   78  A    between atoms: _201  and  _202
REMARK   79  A    between atoms: _202  and  _203
REMARK   80  A    between atoms: _212  and  _214
REMARK   81  A    between atoms: _214  and  _215
REMARK   82  A    between atoms: _214  and  _217
REMARK   83  A    between atoms: _217  and  _218
REMARK   84  A    between atoms: _223  and  _225
REMARK   85  A    between atoms: _225  and  _226
REMARK   86  A    between atoms: _225  and  _228
REMARK   87  A    between atoms: _228  and  _229
REMARK   88  A    between atoms: _232  and  _234
REMARK   89  A    between atoms: _234  and  _235
REMARK   90  A    between atoms: _234  and  _237
REMARK   91  A    between atoms: _237  and  _238
REMARK   92  A    between atoms: _241  and  _243
REMARK   93  A    between atoms: _243  and  _244
REMARK   94  A    between atoms: _243  and  _246
REMARK   95  A    between atoms: _246  and  _247
REMARK   96  A    between atoms: _252  and  _254
REMARK   97  A    between atoms: _254  and  _255
REMARK   98  A    between atoms: _254  and  _257
REMARK   99  A    between atoms: _257  and  _258
REMARK  100  A    between atoms: _261  and  _263
REMARK  101  A    between atoms: _263  and  _264
REMARK  102  A    between atoms: _263  and  _266
REMARK  103  A    between atoms: _266  and  _267
REMARK  104  A    between atoms: _272  and  _274
REMARK  105  A    between atoms: _274  and  _275
REMARK  106  A    between atoms: _274  and  _277
REMARK  107  A    between atoms: _277  and  _278
REMARK  108  A    between atoms: _283  and  _285
REMARK  109  A    between atoms: _285  and  _286
REMARK  110  A    between atoms: _285  and  _288
REMARK  111  A    between atoms: _288  and  _289
REMARK  112  A    between atoms: _292  and  _294
REMARK  113  A    between atoms: _294  and  _295
REMARK  114  A    between atoms: _294  and  _297
REMARK  115  A    between atoms: _300  and  _302
REMARK  116  A    between atoms: _302  and  _303
REMARK  117  A    between atoms: _302  and  _305
REMARK  118  A    between atoms: _305  and  _306
REMARK  119  A    between atoms: _309  and  _311
REMARK  120  A    between atoms: _311  and  _312
REMARK  121  A    between atoms: _311  and  _314
REMARK  122  A    between atoms: _314  and  _315
REMARK  123  A    between atoms: _315  and  _316
REMARK  124  A    between atoms: _319  and  _321
REMARK  125  A    between atoms: _321  and  _322
REMARK  126  A    between atoms: _325  and  _327
REMARK  127  A    between atoms: _327  and  _328
REMARK  128  A    between atoms: _327  and  _330
REMARK  129  A    between atoms: _330  and  _331
REMARK  130  A    between atoms: _334  and  _336
REMARK  131  A    between atoms: _336  and  _337
REMARK  132  A    between atoms: _336  and  _339
REMARK  133  A    between atoms: _339  and  _340
REMARK  134  A    between atoms: _340  and  _341
REMARK  135  A    between atoms: _344  and  _346
REMARK  136  A    between atoms: _346  and  _347
REMARK  137  A    between atoms: _346  and  _349
REMARK  138  A    between atoms: _349  and  _350
REMARK  139  A    between atoms: _355  and  _357
REMARK  140  A    between atoms: _357  and  _358
REMARK  141  A    between atoms: _360  and  _362
REMARK  142  A    between atoms: _362  and  _363
REMARK  143  A    between atoms: _362  and  _365
REMARK  144  A    between atoms: _368  and  _370
REMARK  145  A    between atoms: _370  and  _371
REMARK  146  A    between atoms: _374  and  _376
REMARK  147  A    between atoms: _376  and  _377
REMARK  148  A    between atoms: _376  and  _379
REMARK  149  A    between atoms: _379  and  _380
REMARK  150  A    between atoms: _385  and  _387
REMARK  151  A    between atoms: _387  and  _388
REMARK  152  A    between atoms: _387  and  _390
REMARK  153  A    between atoms: _390  and  _391
REMARK  154  A    between atoms: _391  and  _392
REMARK  155  A    between atoms: _392  and  _393
REMARK  156  A    between atoms: _393  and  _394
REMARK  157  A    between atoms: _398  and  _400
REMARK  158  A    between atoms: _400  and  _401
REMARK  159  A    between atoms: _400  and  _403
REMARK  160  A    between atoms: _403  and  _404
REMARK  161  A    between atoms: _407  and  _409
REMARK  162  A    between atoms: _409  and  _410
REMARK  163  A    between atoms: _409  and  _412
REMARK  164  A    between atoms: _412  and  _413
REMARK  165  A    between atoms: _418  and  _420
REMARK  166  A    between atoms: _420  and  _421
REMARK  167  A    between atoms: _423  and  _425
REMARK  168  A    between atoms: _425  and  _426
REMARK  169  A    between atoms: _425  and  _428
REMARK  170  A    between atoms: _428  and  _429
REMARK  171  A    between atoms: _429  and  _430
REMARK  172  A    between atoms: _430  and  _431
REMARK  173  A    between atoms: _431  and  _432
REMARK  174  A    between atoms: _436  and  _438
REMARK  175  A    between atoms: _438  and  _439
REMARK  176  A    between atoms: _438  and  _441
REMARK  177  A    between atoms: _441  and  _442
REMARK  178  A    between atoms: _442  and  _443
REMARK  179  A    between atoms: _443  and  _444
REMARK  180  A    between atoms: _453  and  _455
REMARK  181  A    between atoms: _455  and  _456
REMARK  182  A    between atoms: _455  and  _458
REMARK  183  A    between atoms: _458  and  _459
REMARK  184  A    between atoms: _464  and  _465
REMARK  185  A    between atoms: _467  and  _469
REMARK  186  A    between atoms: _469  and  _470
REMARK  187  A    between atoms: _469  and  _472
REMARK  188  A    between atoms: _472  and  _473
REMARK  189  A    between atoms: _473  and  _474
REMARK  190  A    between atoms: _474  and  _475
REMARK  191  A    between atoms: _475  and  _476
REMARK  192  A    between atoms: _480  and  _482
REMARK  193  A    between atoms: _482  and  _483
REMARK  194  A    between atoms: _482  and  _485
REMARK  195  A    between atoms: _485  and  _486
REMARK  196  A    between atoms: _488  and  _490
REMARK  197  A    between atoms: _490  and  _491
REMARK  198  A    between atoms: _490  and  _493
REMARK  199  A    between atoms: _493  and  _494
REMARK  200  A    between atoms: _497  and  _499
REMARK  201  A    between atoms: _499  and  _500
REMARK  202  A    between atoms: _499  and  _502
REMARK  203  A    between atoms: _502  and  _503
REMARK  204  A    between atoms: _503  and  _504
REMARK  205  A    between atoms: _507  and  _509
REMARK  206  A    between atoms: _509  and  _510
REMARK  207  A    between atoms: _513  and  _515
REMARK  208  A    between atoms: _515  and  _516
REMARK  209  A    between atoms: _515  and  _518
REMARK  210  A    between atoms: _518  and  _519
REMARK  211  A    between atoms: _521  and  _523
REMARK  212  A    between atoms: _523  and  _524
REMARK  213  A    between atoms: _526  and  _528
REMARK  214  A    between atoms: _528  and  _529
REMARK  215  A    between atoms: _528  and  _531
REMARK  216  A    between atoms: _531  and  _532
REMARK  217  A    between atoms: _535  and  _537
REMARK  218  A    between atoms: _537  and  _538
REMARK  219  A    between atoms: _540  and  _542
REMARK  220  A    between atoms: _542  and  _543
REMARK  221  A    between atoms: _542  and  _545
REMARK  222  A    between atoms: _545  and  _546
REMARK  223  A    between atoms: _551  and  _553
REMARK  224  A    between atoms: _553  and  _554
REMARK  225  A    between atoms: _553  and  _556
REMARK  226  A    between atoms: _556  and  _557
REMARK  227  A    between atoms: _557  and  _558
REMARK  228  A    between atoms: _565  and  _566
REMARK  229  A    between atoms: _566  and  _582
REMARK  230  A    between atoms: _567  and  _569
REMARK  231  A    between atoms: _569  and  _570
REMARK  232  A    between atoms: _570  and  _571
REMARK  233  A    between atoms: _575  and  _577
REMARK  234  A    between atoms: _577  and  _578
REMARK  235  A    between atoms: _577  and  _585
REMARK  236  A    between atoms: _578  and  _579
REMARK  237  A    between atoms: _579  and  _580
REMARK  238  A    between atoms: _580  and  _581
REMARK  239  A    between atoms: _581  and  _582
REMARK  240  A    between atoms: _587  and  _589
REMARK  241  A    between atoms: _589  and  _590
REMARK  242  A    between atoms: _589  and  _592
REMARK  243  A    between atoms: _592  and  _593
REMARK  244  A    between atoms: _596  and  _598
REMARK  245  A    between atoms: _598  and  _599
REMARK  246  A    between atoms: _601  and  _603
REMARK  247  A    between atoms: _603  and  _604
REMARK  248  A    between atoms: _607  and  _609
REMARK  249  A    between atoms: _609  and  _610
REMARK  250  A    between atoms: _609  and  _612
REMARK  251  A    between atoms: _612  and  _613
REMARK  252  A    between atoms: _618  and  _619
REMARK                            x       y       z     vdW  Elec       q    Type
REMARK                         _______ _______ _______ _____ _____    ______ ____
ROOT
ATOM      1  O   HOH     1      29.551  23.381  18.949  0.00  0.00    +0.000 OA
ENDROOT
TORSDOF 0
REMARK  Name = ../refined-set-2016/2qrh/2qrh_pocket.pdb
REMARK  252 active torsions:
REMARK  status: ('A' for Active; 'I' for Inactive)
REMARK    1  A    between atoms: _1  and  _3
REMARK    2  A    between atoms: _3  and  _4
REMARK    3  A    between atoms: _3  and  _6
REMARK    4  A    between atoms: _6  and  _7
REMARK    5  A    between atoms: _12  and  _13
REMARK    6  A    between atoms: _15  and  _17
REMARK    7  A    between atoms: _17  and  _18
REMARK    8  A    between atoms: _17  and  _20
REMARK    9  A    between atoms: _20  and  _21
REMARK   10  A    between atoms: _21  and  _22
REMARK   11  A    between atoms: _25  and  _27
REMARK   12  A    between atoms: _27  and  _28
REMARK   13  A    between atoms: _30  and  _32
REMARK   14  A    between atoms: _32  and  _33
REMARK   15  A    between atoms: _32  and  _35
REMARK   16  A    between atoms: _35  and  _36
REMARK   17  A    between atoms: _41  and  _43
REMARK   18  A    between atoms: _43  and  _44
REMARK   19  A    between atoms: _46  and  _48
REMARK   20  A    between atoms: _48  and  _49
REMARK   21  A    between atoms: _51  and  _53
REMARK   22  A    between atoms: _53  and  _54
REMARK   23  A    between atoms: _53  and  _56
REMARK   24  A    between atoms: _56  and  _57
REMARK   25  A    between atoms: _60  and  _62
REMARK   26  A    between atoms: _62  and  _63
REMARK   27  A    between atoms: _65  and  _67
REMARK   28  A    between atoms: _67  and  _68
REMARK   29  A    between atoms: _67  and  _70
REMARK   30  A    between atoms: _70  and  _71
REMARK   31  A    between atoms: _71  and  _72
REMARK   32  A    between atoms: _72  and  _73
REMARK   33  A    between atoms: _82  and  _84
REMARK   34  A    between atoms: _84  and  _85
REMARK   35  A    between atoms: _84  and  _87
REMARK   36  A    between atoms: _87  and  _88
REMARK   37  A    between atoms: _91  and  _93
REMARK   38  A    between atoms: _93  and  _94
REMARK   39  A    between atoms: _97  and  _99
REMARK   40  A    between atoms: _99  and  _100
REMARK   41  A    between atoms: _99  and  _102
REMARK   42  A    between atoms: _102  and  _103
REMARK   43  A    between atoms: _109  and  _111
REMARK   44  A    between atoms: _111  and  _112
REMARK   45  A    between atoms: _111  and  _114
REMARK   46  A    between atoms: _114  and  _115
REMARK   47  A    between atoms: _120  and  _121
REMARK   48  A    between atoms: _124  and  _125
REMARK   49  A    between atoms: _130  and  _132
REMARK   50  A    between atoms: _132  and  _133
REMARK   51  A    between atoms: _132  and  _135
REMARK   52  A    between atoms: _135  and  _136
REMARK   53  A    between atoms: _141  and  _143
REMARK   54  A    between atoms: _143  and  _144
REMARK   55  A    between atoms: _143  and  _146
REMARK   56  A    between atoms: _146  and  _147
REMARK   57  A    between atoms: _150  and  _152
REMARK   58  A    between atoms: _152  and  _153
REMARK   59  A    between atoms: _152  and  _155
REMARK   60  A    between atoms: _155  and  _156
REMARK   61  A    between atoms: _161  and  _163
REMARK   62  A    between atoms: _163  and  _164
REMARK   63  A    between atoms: _163  and  _166
REMARK   64  A    between atoms: _166  and  _167
REMARK   65  A    between atoms: _173  and  _175
REMARK   66  A    between atoms: _175  and  _176
REMARK   67  A    between atoms: _175  and  _178
REMARK   68  A    between atoms: _178  and  _179
REMARK   69  A    between atoms: _185  and  _187
REMARK   70  A    between atoms: _187  and  _188
REMARK   71  A    between atoms: _187  and  _190
REMARK   72  A    between atoms: _190  and  _191
REMARK   73  A    between atoms: _191  and  _192
REMARK   74  A    between atoms: _195  and  _197
REMARK   75  A    between atoms: _197  and  _198
REMARK   76  A    between atoms: _197  and  _200
REMARK   77  A    between atoms: _200  and  _201
REMARK   78  A    between atoms: _201  and  _202
REMARK   79  A    between atoms: _202  and  _203
REMARK   80  A    between atoms: _212  and  _214
REMARK   81  A    between atoms: _214  and  _215
REMARK   82  A    between atoms: _214  and  _217
REMARK   83  A    between atoms: _217  and  _218
REMARK   84  A    between atoms: _223  and  _225
REMARK   85  A    between atoms: _225  and  _226
REMARK   86  A    between atoms: _225  and  _228
REMARK   87  A    between atoms: _228  and  _229
REMARK   88  A    between atoms: _232  and  _234
REMARK   89  A    between atoms: _234  and  _235
REMARK   90  A    between atoms: _234  and  _237
REMARK   91  A    between atoms: _237  and  _238
REMARK   92  A    between atoms: _241  and  _243
REMARK   93  A    between atoms: _243  and  _244
REMARK   94  A    between atoms: _243  and  _246
REMARK   95  A    between atoms: _246  and  _247
REMARK   96  A    between atoms: _252  and  _254
REMARK   97  A    between atoms: _254  and  _255
REMARK   98  A    between atoms: _254  and  _257
REMARK   99  A    between atoms: _257  and  _258
REMARK  100  A    between atoms: _261  and  _263
REMARK  101  A    between atoms: _263  and  _264
REMARK  102  A    between atoms: _263  and  _266
REMARK  103  A    between atoms: _266  and  _267
REMARK  104  A    between atoms: _272  and  _274
REMARK  105  A    between atoms: _274  and  _275
REMARK  106  A    between atoms: _274  and  _277
REMARK  107  A    between atoms: _277  and  _278
REMARK  108  A    between atoms: _283  and  _285
REMARK  109  A    between atoms: _285  and  _286
REMARK  110  A    between atoms: _285  and  _288
REMARK  111  A    between atoms: _288  and  _289
REMARK  112  A    between atoms: _292  and  _294
REMARK  113  A    between atoms: _294  and  _295
REMARK  114  A    between atoms: _294  and  _297
REMARK  115  A    between atoms: _300  and  _302
REMARK  116  A    between atoms: _302  and  _303
REMARK  117  A    between atoms: _302  and  _305
REMARK  118  A    between atoms: _305  and  _306
REMARK  119  A    between atoms: _309  and  _311
REMARK  120  A    between atoms: _311  and  _312
REMARK  121  A    between atoms: _311  and  _314
REMARK  122  A    between atoms: _314  and  _315
REMARK  123  A    between atoms: _315  and  _316
REMARK  124  A    between atoms: _319  and  _321
REMARK  125  A    between atoms: _321  and  _322
REMARK  126  A    between atoms: _325  and  _327
REMARK  127  A    between atoms: _327  and  _328
REMARK  128  A    between atoms: _327  and  _330
REMARK  129  A    between atoms: _330  and  _331
REMARK  130  A    between atoms: _334  and  _336
REMARK  131  A    between atoms: _336  and  _337
REMARK  132  A    between atoms: _336  and  _339
REMARK  133  A    between atoms: _339  and  _340
REMARK  134  A    between atoms: _340  and  _341
REMARK  135  A    between atoms: _344  and  _346
REMARK  136  A    between atoms: _346  and  _347
REMARK  137  A    between atoms: _346  and  _349
REMARK  138  A    between atoms: _349  and  _350
REMARK  139  A    between atoms: _355  and  _357
REMARK  140  A    between atoms: _357  and  _358
REMARK  141  A    between atoms: _360  and  _362
REMARK  142  A    between atoms: _362  and  _363
REMARK  143  A    between atoms: _362  and  _365
REMARK  144  A    between atoms: _368  and  _370
REMARK  145  A    between atoms: _370  and  _371
REMARK  146  A    between atoms: _374  and  _376
REMARK  147  A    between atoms: _376  and  _377
REMARK  148  A    between atoms: _376  and  _379
REMARK  149  A    between atoms: _379  and  _380
REMARK  150  A    between atoms: _385  and  _387
REMARK  151  A    between atoms: _387  and  _388
REMARK  152  A    between atoms: _387  and  _390
REMARK  153  A    between atoms: _390  and  _391
REMARK  154  A    between atoms: _391  and  _392
REMARK  155  A    between atoms: _392  and  _393
REMARK  156  A    between atoms: _393  and  _394
REMARK  157  A    between atoms: _398  and  _400
REMARK  158  A    between atoms: _400  and  _401
REMARK  159  A    between atoms: _400  and  _403
REMARK  160  A    between atoms: _403  and  _404
REMARK  161  A    between atoms: _407  and  _409
REMARK  162  A    between atoms: _409  and  _410
REMARK  163  A    between atoms: _409  and  _412
REMARK  164  A    between atoms: _412  and  _413
REMARK  165  A    between atoms: _418  and  _420
REMARK  166  A    between atoms: _420  and  _421
REMARK  167  A    between atoms: _423  and  _425
REMARK  168  A    between atoms: _425  and  _426
REMARK  169  A    between atoms: _425  and  _428
REMARK  170  A    between atoms: _428  and  _429
REMARK  171  A    between atoms: _429  and  _430
REMARK  172  A    between atoms: _430  and  _431
REMARK  173  A    between atoms: _431  and  _432
REMARK  174  A    between atoms: _436  and  _438
REMARK  175  A    between atoms: _438  and  _439
REMARK  176  A    between atoms: _438  and  _441
REMARK  177  A    between atoms: _441  and  _442
REMARK  178  A    between atoms: _442  and  _443
REMARK  179  A    between atoms: _443  and  _444
REMARK  180  A    between atoms: _453  and  _455
REMARK  181  A    between atoms: _455  and  _456
REMARK  182  A    between atoms: _455  and  _458
REMARK  183  A    between atoms: _458  and  _459
REMARK  184  A    between atoms: _464  and  _465
REMARK  185  A    between atoms: _467  and  _469
REMARK  186  A    between atoms: _469  and  _470
REMARK  187  A    between atoms: _469  and  _472
REMARK  188  A    between atoms: _472  and  _473
REMARK  189  A    between atoms: _473  and  _474
REMARK  190  A    between atoms: _474  and  _475
REMARK  191  A    between atoms: _475  and  _476
REMARK  192  A    between atoms: _480  and  _482
REMARK  193  A    between atoms: _482  and  _483
REMARK  194  A    between atoms: _482  and  _485
REMARK  195  A    between atoms: _485  and  _486
REMARK  196  A    between atoms: _488  and  _490
REMARK  197  A    between atoms: _490  and  _491
REMARK  198  A    between atoms: _490  and  _493
REMARK  199  A    between atoms: _493  and  _494
REMARK  200  A    between atoms: _497  and  _499
REMARK  201  A    between atoms: _499  and  _500
REMARK  202  A    between atoms: _499  and  _502
REMARK  203  A    between atoms: _502  and  _503
REMARK  204  A    between atoms: _503  and  _504
REMARK  205  A    between atoms: _507  and  _509
REMARK  206  A    between atoms: _509  and  _510
REMARK  207  A    between atoms: _513  and  _515
REMARK  208  A    between atoms: _515  and  _516
REMARK  209  A    between atoms: _515  and  _518
REMARK  210  A    between atoms: _518  and  _519
REMARK  211  A    between atoms: _521  and  _523
REMARK  212  A    between atoms: _523  and  _524
REMARK  213  A    between atoms: _526  and  _528
REMARK  214  A    between atoms: _528  and  _529
REMARK  215  A    between atoms: _528  and  _531
REMARK  216  A    between atoms: _531  and  _532
REMARK  217  A    between atoms: _535  and  _537
REMARK  218  A    between atoms: _537  and  _538
REMARK  219  A    between atoms: _540  and  _542
REMARK  220  A    between atoms: _542  and  _543
REMARK  221  A    between atoms: _542  and  _545
REMARK  222  A    between atoms: _545  and  _546
REMARK  223  A    between atoms: _551  and  _553
REMARK  224  A    between atoms: _553  and  _554
REMARK  225  A    between atoms: _553  and  _556
REMARK  226  A    between atoms: _556  and  _557
REMARK  227  A    between atoms: _557  and  _558
REMARK  228  A    between atoms: _565  and  _566
REMARK  229  A    between atoms: _566  and  _582
REMARK  230  A    between atoms: _567  and  _569
REMARK  231  A    between atoms: _569  and  _570
REMARK  232  A    between atoms: _570  and  _571
REMARK  233  A    between atoms: _575  and  _577
REMARK  234  A    between atoms: _577  and  _578
REMARK  235  A    between atoms: _577  and  _585
REMARK  236  A    between atoms: _578  and  _579
REMARK  237  A    between atoms: _579  and  _580
REMARK  238  A    between atoms: _580  and  _581
REMARK  239  A    between atoms: _581  and  _582
REMARK  240  A    between atoms: _587  and  _589
REMARK  241  A    between atoms: _589  and  _590
REMARK  242  A    between atoms: _589  and  _592
REMARK  243  A    between atoms: _592  and  _593
REMARK  244  A    between atoms: _596  and  _598
REMARK  245  A    between atoms: _598  and  _599
REMARK  246  A    between atoms: _601  and  _603
REMARK  247  A    between atoms: _603  and  _604
REMARK  248  A    between atoms: _607  and  _609
REMARK  249  A    between atoms: _609  and  _610
REMARK  250  A    between atoms: _609  and  _612
REMARK  251  A    between atoms: _612  and  _613
REMARK  252  A    between atoms: _618  and  _619
REMARK                            x       y       z     vdW  Elec       q    Type
REMARK                         _______ _______ _______ _____ _____    ______ ____
ROOT
ATOM      1  O   HOH     1      26.893  19.329  28.963  0.00  0.00    +0.000 OA
ENDROOT
TORSDOF 0
REMARK  Name = ../refined-set-2016/2qrh/2qrh_pocket.pdb
REMARK  252 active torsions:
REMARK  status: ('A' for Active; 'I' for Inactive)
REMARK    1  A    between atoms: _1  and  _3
REMARK    2  A    between atoms: _3  and  _4
REMARK    3  A    between atoms: _3  and  _6
REMARK    4  A    between atoms: _6  and  _7
REMARK    5  A    between atoms: _12  and  _13
REMARK    6  A    between atoms: _15  and  _17
REMARK    7  A    between atoms: _17  and  _18
REMARK    8  A    between atoms: _17  and  _20
REMARK    9  A    between atoms: _20  and  _21
REMARK   10  A    between atoms: _21  and  _22
REMARK   11  A    between atoms: _25  and  _27
REMARK   12  A    between atoms: _27  and  _28
REMARK   13  A    between atoms: _30  and  _32
REMARK   14  A    between atoms: _32  and  _33
REMARK   15  A    between atoms: _32  and  _35
REMARK   16  A    between atoms: _35  and  _36
REMARK   17  A    between atoms: _41  and  _43
REMARK   18  A    between atoms: _43  and  _44
REMARK   19  A    between atoms: _46  and  _48
REMARK   20  A    between atoms: _48  and  _49
REMARK   21  A    between atoms: _51  and  _53
REMARK   22  A    between atoms: _53  and  _54
REMARK   23  A    between atoms: _53  and  _56
REMARK   24  A    between atoms: _56  and  _57
REMARK   25  A    between atoms: _60  and  _62
REMARK   26  A    between atoms: _62  and  _63
REMARK   27  A    between atoms: _65  and  _67
REMARK   28  A    between atoms: _67  and  _68
REMARK   29  A    between atoms: _67  and  _70
REMARK   30  A    between atoms: _70  and  _71
REMARK   31  A    between atoms: _71  and  _72
REMARK   32  A    between atoms: _72  and  _73
REMARK   33  A    between atoms: _82  and  _84
REMARK   34  A    between atoms: _84  and  _85
REMARK   35  A    between atoms: _84  and  _87
REMARK   36  A    between atoms: _87  and  _88
REMARK   37  A    between atoms: _91  and  _93
REMARK   38  A    between atoms: _93  and  _94
REMARK   39  A    between atoms: _97  and  _99
REMARK   40  A    between atoms: _99  and  _100
REMARK   41  A    between atoms: _99  and  _102
REMARK   42  A    between atoms: _102  and  _103
REMARK   43  A    between atoms: _109  and  _111
REMARK   44  A    between atoms: _111  and  _112
REMARK   45  A    between atoms: _111  and  _114
REMARK   46  A    between atoms: _114  and  _115
REMARK   47  A    between atoms: _120  and  _121
REMARK   48  A    between atoms: _124  and  _125
REMARK   49  A    between atoms: _130  and  _132
REMARK   50  A    between atoms: _132  and  _133
REMARK   51  A    between atoms: _132  and  _135
REMARK   52  A    between atoms: _135  and  _136
REMARK   53  A    between atoms: _141  and  _143
REMARK   54  A    between atoms: _143  and  _144
REMARK   55  A    between atoms: _143  and  _146
REMARK   56  A    between atoms: _146  and  _147
REMARK   57  A    between atoms: _150  and  _152
REMARK   58  A    between atoms: _152  and  _153
REMARK   59  A    between atoms: _152  and  _155
REMARK   60  A    between atoms: _155  and  _156
REMARK   61  A    between atoms: _161  and  _163
REMARK   62  A    between atoms: _163  and  _164
REMARK   63  A    between atoms: _163  and  _166
REMARK   64  A    between atoms: _166  and  _167
REMARK   65  A    between atoms: _173  and  _175
REMARK   66  A    between atoms: _175  and  _176
REMARK   67  A    between atoms: _175  and  _178
REMARK   68  A    between atoms: _178  and  _179
REMARK   69  A    between atoms: _185  and  _187
REMARK   70  A    between atoms: _187  and  _188
REMARK   71  A    between atoms: _187  and  _190
REMARK   72  A    between atoms: _190  and  _191
REMARK   73  A    between atoms: _191  and  _192
REMARK   74  A    between atoms: _195  and  _197
REMARK   75  A    between atoms: _197  and  _198
REMARK   76  A    between atoms: _197  and  _200
REMARK   77  A    between atoms: _200  and  _201
REMARK   78  A    between atoms: _201  and  _202
REMARK   79  A    between atoms: _202  and  _203
REMARK   80  A    between atoms: _212  and  _214
REMARK   81  A    between atoms: _214  and  _215
REMARK   82  A    between atoms: _214  and  _217
REMARK   83  A    between atoms: _217  and  _218
REMARK   84  A    between atoms: _223  and  _225
REMARK   85  A    between atoms: _225  and  _226
REMARK   86  A    between atoms: _225  and  _228
REMARK   87  A    between atoms: _228  and  _229
REMARK   88  A    between atoms: _232  and  _234
REMARK   89  A    between atoms: _234  and  _235
REMARK   90  A    between atoms: _234  and  _237
REMARK   91  A    between atoms: _237  and  _238
REMARK   92  A    between atoms: _241  and  _243
REMARK   93  A    between atoms: _243  and  _244
REMARK   94  A    between atoms: _243  and  _246
REMARK   95  A    between atoms: _246  and  _247
REMARK   96  A    between atoms: _252  and  _254
REMARK   97  A    between atoms: _254  and  _255
REMARK   98  A    between atoms: _254  and  _257
REMARK   99  A    between atoms: _257  and  _258
REMARK  100  A    between atoms: _261  and  _263
REMARK  101  A    between atoms: _263  and  _264
REMARK  102  A    between atoms: _263  and  _266
REMARK  103  A    between atoms: _266  and  _267
REMARK  104  A    between atoms: _272  and  _274
REMARK  105  A    between atoms: _274  and  _275
REMARK  106  A    between atoms: _274  and  _277
REMARK  107  A    between atoms: _277  and  _278
REMARK  108  A    between atoms: _283  and  _285
REMARK  109  A    between atoms: _285  and  _286
REMARK  110  A    between atoms: _285  and  _288
REMARK  111  A    between atoms: _288  and  _289
REMARK  112  A    between atoms: _292  and  _294
REMARK  113  A    between atoms: _294  and  _295
REMARK  114  A    between atoms: _294  and  _297
REMARK  115  A    between atoms: _300  and  _302
REMARK  116  A    between atoms: _302  and  _303
REMARK  117  A    between atoms: _302  and  _305
REMARK  118  A    between atoms: _305  and  _306
REMARK  119  A    between atoms: _309  and  _311
REMARK  120  A    between atoms: _311  and  _312
REMARK  121  A    between atoms: _311  and  _314
REMARK  122  A    between atoms: _314  and  _315
REMARK  123  A    between atoms: _315  and  _316
REMARK  124  A    between atoms: _319  and  _321
REMARK  125  A    between atoms: _321  and  _322
REMARK  126  A    between atoms: _325  and  _327
REMARK  127  A    between atoms: _327  and  _328
REMARK  128  A    between atoms: _327  and  _330
REMARK  129  A    between atoms: _330  and  _331
REMARK  130  A    between atoms: _334  and  _336
REMARK  131  A    between atoms: _336  and  _337
REMARK  132  A    between atoms: _336  and  _339
REMARK  133  A    between atoms: _339  and  _340
REMARK  134  A    between atoms: _340  and  _341
REMARK  135  A    between atoms: _344  and  _346
REMARK  136  A    between atoms: _346  and  _347
REMARK  137  A    between atoms: _346  and  _349
REMARK  138  A    between atoms: _349  and  _350
REMARK  139  A    between atoms: _355  and  _357
REMARK  140  A    between atoms: _357  and  _358
REMARK  141  A    between atoms: _360  and  _362
REMARK  142  A    between atoms: _362  and  _363
REMARK  143  A    between atoms: _362  and  _365
REMARK  144  A    between atoms: _368  and  _370
REMARK  145  A    between atoms: _370  and  _371
REMARK  146  A    between atoms: _374  and  _376
REMARK  147  A    between atoms: _376  and  _377
REMARK  148  A    between atoms: _376  and  _379
REMARK  149  A    between atoms: _379  and  _380
REMARK  150  A    between atoms: _385  and  _387
REMARK  151  A    between atoms: _387  and  _388
REMARK  152  A    between atoms: _387  and  _390
REMARK  153  A    between atoms: _390  and  _391
REMARK  154  A    between atoms: _391  and  _392
REMARK  155  A    between atoms: _392  and  _393
REMARK  156  A    between atoms: _393  and  _394
REMARK  157  A    between atoms: _398  and  _400
REMARK  158  A    between atoms: _400  and  _401
REMARK  159  A    between atoms: _400  and  _403
REMARK  160  A    between atoms: _403  and  _404
REMARK  161  A    between atoms: _407  and  _409
REMARK  162  A    between atoms: _409  and  _410
REMARK  163  A    between atoms: _409  and  _412
REMARK  164  A    between atoms: _412  and  _413
REMARK  165  A    between atoms: _418  and  _420
REMARK  166  A    between atoms: _420  and  _421
REMARK  167  A    between atoms: _423  and  _425
REMARK  168  A    between atoms: _425  and  _426
REMARK  169  A    between atoms: _425  and  _428
REMARK  170  A    between atoms: _428  and  _429
REMARK  171  A    between atoms: _429  and  _430
REMARK  172  A    between atoms: _430  and  _431
REMARK  173  A    between atoms: _431  and  _432
REMARK  174  A    between atoms: _436  and  _438
REMARK  175  A    between atoms: _438  and  _439
REMARK  176  A    between atoms: _438  and  _441
REMARK  177  A    between atoms: _441  and  _442
REMARK  178  A    between atoms: _442  and  _443
REMARK  179  A    between atoms: _443  and  _444
REMARK  180  A    between atoms: _453  and  _455
REMARK  181  A    between atoms: _455  and  _456
REMARK  182  A    between atoms: _455  and  _458
REMARK  183  A    between atoms: _458  and  _459
REMARK  184  A    between atoms: _464  and  _465
REMARK  185  A    between atoms: _467  and  _469
REMARK  186  A    between atoms: _469  and  _470
REMARK  187  A    between atoms: _469  and  _472
REMARK  188  A    between atoms: _472  and  _473
REMARK  189  A    between atoms: _473  and  _474
REMARK  190  A    between atoms: _474  and  _475
REMARK  191  A    between atoms: _475  and  _476
REMARK  192  A    between atoms: _480  and  _482
REMARK  193  A    between atoms: _482  and  _483
REMARK  194  A    between atoms: _482  and  _485
REMARK  195  A    between atoms: _485  and  _486
REMARK  196  A    between atoms: _488  and  _490
REMARK  197  A    between atoms: _490  and  _491
REMARK  198  A    between atoms: _490  and  _493
REMARK  199  A    between atoms: _493  and  _494
REMARK  200  A    between atoms: _497  and  _499
REMARK  201  A    between atoms: _499  and  _500
REMARK  202  A    between atoms: _499  and  _502
REMARK  203  A    between atoms: _502  and  _503
REMARK  204  A    between atoms: _503  and  _504
REMARK  205  A    between atoms: _507  and  _509
REMARK  206  A    between atoms: _509  and  _510
REMARK  207  A    between atoms: _513  and  _515
REMARK  208  A    between atoms: _515  and  _516
REMARK  209  A    between atoms: _515  and  _518
REMARK  210  A    between atoms: _518  and  _519
REMARK  211  A    between atoms: _521  and  _523
REMARK  212  A    between atoms: _523  and  _524
REMARK  213  A    between atoms: _526  and  _528
REMARK  214  A    between atoms: _528  and  _529
REMARK  215  A    between atoms: _528  and  _531
REMARK  216  A    between atoms: _531  and  _532
REMARK  217  A    between atoms: _535  and  _537
REMARK  218  A    between atoms: _537  and  _538
REMARK  219  A    between atoms: _540  and  _542
REMARK  220  A    between atoms: _542  and  _543
REMARK  221  A    between atoms: _542  and  _545
REMARK  222  A    between atoms: _545  and  _546
REMARK  223  A    between atoms: _551  and  _553
REMARK  224  A    between atoms: _553  and  _554
REMARK  225  A    between atoms: _553  and  _556
REMARK  226  A    between atoms: _556  and  _557
REMARK  227  A    between atoms: _557  and  _558
REMARK  228  A    between atoms: _565  and  _566
REMARK  229  A    between atoms: _566  and  _582
REMARK  230  A    between atoms: _567  and  _569
REMARK  231  A    between atoms: _569  and  _570
REMARK  232  A    between atoms: _570  and  _571
REMARK  233  A    between atoms: _575  and  _577
REMARK  234  A    between atoms: _577  and  _578
REMARK  235  A    between atoms: _577  and  _585
REMARK  236  A    between atoms: _578  and  _579
REMARK  237  A    between atoms: _579  and  _580
REMARK  238  A    between atoms: _580  and  _581
REMARK  239  A    between atoms: _581  and  _582
REMARK  240  A    between atoms: _587  and  _589
REMARK  241  A    between atoms: _589  and  _590
REMARK  242  A    between atoms: _589  and  _592
REMARK  243  A    between atoms: _592  and  _593
REMARK  244  A    between atoms: _596  and  _598
REMARK  245  A    between atoms: _598  and  _599
REMARK  246  A    between atoms: _601  and  _603
REMARK  247  A    between atoms: _603  and  _604
REMARK  248  A    between atoms: _607  and  _609
REMARK  249  A    between atoms: _609  and  _610
REMARK  250  A    between atoms: _609  and  _612
REMARK  251  A    between atoms: _612  and  _613
REMARK  252  A    between atoms: _618  and  _619
REMARK                            x       y       z     vdW  Elec       q    Type
REMARK                         _______ _______ _______ _____ _____    ______ ____
ROOT
ATOM      1  O   HOH     1      29.248  21.877  26.434  0.00  0.00    +0.000 OA
ENDROOT
TORSDOF 0
REMARK  Name = ../refined-set-2016/2qrh/2qrh_pocket.pdb
REMARK  252 active torsions:
REMARK  status: ('A' for Active; 'I' for Inactive)
REMARK    1  A    between atoms: _1  and  _3
REMARK    2  A    between atoms: _3  and  _4
REMARK    3  A    between atoms: _3  and  _6
REMARK    4  A    between atoms: _6  and  _7
REMARK    5  A    between atoms: _12  and  _13
REMARK    6  A    between atoms: _15  and  _17
REMARK    7  A    between atoms: _17  and  _18
REMARK    8  A    between atoms: _17  and  _20
REMARK    9  A    between atoms: _20  and  _21
REMARK   10  A    between atoms: _21  and  _22
REMARK   11  A    between atoms: _25  and  _27
REMARK   12  A    between atoms: _27  and  _28
REMARK   13  A    between atoms: _30  and  _32
REMARK   14  A    between atoms: _32  and  _33
REMARK   15  A    between atoms: _32  and  _35
REMARK   16  A    between atoms: _35  and  _36
REMARK   17  A    between atoms: _41  and  _43
REMARK   18  A    between atoms: _43  and  _44
REMARK   19  A    between atoms: _46  and  _48
REMARK   20  A    between atoms: _48  and  _49
REMARK   21  A    between atoms: _51  and  _53
REMARK   22  A    between atoms: _53  and  _54
REMARK   23  A    between atoms: _53  and  _56
REMARK   24  A    between atoms: _56  and  _57
REMARK   25  A    between atoms: _60  and  _62
REMARK   26  A    between atoms: _62  and  _63
REMARK   27  A    between atoms: _65  and  _67
REMARK   28  A    between atoms: _67  and  _68
REMARK   29  A    between atoms: _67  and  _70
REMARK   30  A    between atoms: _70  and  _71
REMARK   31  A    between atoms: _71  and  _72
REMARK   32  A    between atoms: _72  and  _73
REMARK   33  A    between atoms: _82  and  _84
REMARK   34  A    between atoms: _84  and  _85
REMARK   35  A    between atoms: _84  and  _87
REMARK   36  A    between atoms: _87  and  _88
REMARK   37  A    between atoms: _91  and  _93
REMARK   38  A    between atoms: _93  and  _94
REMARK   39  A    between atoms: _97  and  _99
REMARK   40  A    between atoms: _99  and  _100
REMARK   41  A    between atoms: _99  and  _102
REMARK   42  A    between atoms: _102  and  _103
REMARK   43  A    between atoms: _109  and  _111
REMARK   44  A    between atoms: _111  and  _112
REMARK   45  A    between atoms: _111  and  _114
REMARK   46  A    between atoms: _114  and  _115
REMARK   47  A    between atoms: _120  and  _121
REMARK   48  A    between atoms: _124  and  _125
REMARK   49  A    between atoms: _130  and  _132
REMARK   50  A    between atoms: _132  and  _133
REMARK   51  A    between atoms: _132  and  _135
REMARK   52  A    between atoms: _135  and  _136
REMARK   53  A    between atoms: _141  and  _143
REMARK   54  A    between atoms: _143  and  _144
REMARK   55  A    between atoms: _143  and  _146
REMARK   56  A    between atoms: _146  and  _147
REMARK   57  A    between atoms: _150  and  _152
REMARK   58  A    between atoms: _152  and  _153
REMARK   59  A    between atoms: _152  and  _155
REMARK   60  A    between atoms: _155  and  _156
REMARK   61  A    between atoms: _161  and  _163
REMARK   62  A    between atoms: _163  and  _164
REMARK   63  A    between atoms: _163  and  _166
REMARK   64  A    between atoms: _166  and  _167
REMARK   65  A    between atoms: _173  and  _175
REMARK   66  A    between atoms: _175  and  _176
REMARK   67  A    between atoms: _175  and  _178
REMARK   68  A    between atoms: _178  and  _179
REMARK   69  A    between atoms: _185  and  _187
REMARK   70  A    between atoms: _187  and  _188
REMARK   71  A    between atoms: _187  and  _190
REMARK   72  A    between atoms: _190  and  _191
REMARK   73  A    between atoms: _191  and  _192
REMARK   74  A    between atoms: _195  and  _197
REMARK   75  A    between atoms: _197  and  _198
REMARK   76  A    between atoms: _197  and  _200
REMARK   77  A    between atoms: _200  and  _201
REMARK   78  A    between atoms: _201  and  _202
REMARK   79  A    between atoms: _202  and  _203
REMARK   80  A    between atoms: _212  and  _214
REMARK   81  A    between atoms: _214  and  _215
REMARK   82  A    between atoms: _214  and  _217
REMARK   83  A    between atoms: _217  and  _218
REMARK   84  A    between atoms: _223  and  _225
REMARK   85  A    between atoms: _225  and  _226
REMARK   86  A    between atoms: _225  and  _228
REMARK   87  A    between atoms: _228  and  _229
REMARK   88  A    between atoms: _232  and  _234
REMARK   89  A    between atoms: _234  and  _235
REMARK   90  A    between atoms: _234  and  _237
REMARK   91  A    between atoms: _237  and  _238
REMARK   92  A    between atoms: _241  and  _243
REMARK   93  A    between atoms: _243  and  _244
REMARK   94  A    between atoms: _243  and  _246
REMARK   95  A    between atoms: _246  and  _247
REMARK   96  A    between atoms: _252  and  _254
REMARK   97  A    between atoms: _254  and  _255
REMARK   98  A    between atoms: _254  and  _257
REMARK   99  A    between atoms: _257  and  _258
REMARK  100  A    between atoms: _261  and  _263
REMARK  101  A    between atoms: _263  and  _264
REMARK  102  A    between atoms: _263  and  _266
REMARK  103  A    between atoms: _266  and  _267
REMARK  104  A    between atoms: _272  and  _274
REMARK  105  A    between atoms: _274  and  _275
REMARK  106  A    between atoms: _274  and  _277
REMARK  107  A    between atoms: _277  and  _278
REMARK  108  A    between atoms: _283  and  _285
REMARK  109  A    between atoms: _285  and  _286
REMARK  110  A    between atoms: _285  and  _288
REMARK  111  A    between atoms: _288  and  _289
REMARK  112  A    between atoms: _292  and  _294
REMARK  113  A    between atoms: _294  and  _295
REMARK  114  A    between atoms: _294  and  _297
REMARK  115  A    between atoms: _300  and  _302
REMARK  116  A    between atoms: _302  and  _303
REMARK  117  A    between atoms: _302  and  _305
REMARK  118  A    between atoms: _305  and  _306
REMARK  119  A    between atoms: _309  and  _311
REMARK  120  A    between atoms: _311  and  _312
REMARK  121  A    between atoms: _311  and  _314
REMARK  122  A    between atoms: _314  and  _315
REMARK  123  A    between atoms: _315  and  _316
REMARK  124  A    between atoms: _319  and  _321
REMARK  125  A    between atoms: _321  and  _322
REMARK  126  A    between atoms: _325  and  _327
REMARK  127  A    between atoms: _327  and  _328
REMARK  128  A    between atoms: _327  and  _330
REMARK  129  A    between atoms: _330  and  _331
REMARK  130  A    between atoms: _334  and  _336
REMARK  131  A    between atoms: _336  and  _337
REMARK  132  A    between atoms: _336  and  _339
REMARK  133  A    between atoms: _339  and  _340
REMARK  134  A    between atoms: _340  and  _341
REMARK  135  A    between atoms: _344  and  _346
REMARK  136  A    between atoms: _346  and  _347
REMARK  137  A    between atoms: _346  and  _349
REMARK  138  A    between atoms: _349  and  _350
REMARK  139  A    between atoms: _355  and  _357
REMARK  140  A    between atoms: _357  and  _358
REMARK  141  A    between atoms: _360  and  _362
REMARK  142  A    between atoms: _362  and  _363
REMARK  143  A    between atoms: _362  and  _365
REMARK  144  A    between atoms: _368  and  _370
REMARK  145  A    between atoms: _370  and  _371
REMARK  146  A    between atoms: _374  and  _376
REMARK  147  A    between atoms: _376  and  _377
REMARK  148  A    between atoms: _376  and  _379
REMARK  149  A    between atoms: _379  and  _380
REMARK  150  A    between atoms: _385  and  _387
REMARK  151  A    between atoms: _387  and  _388
REMARK  152  A    between atoms: _387  and  _390
REMARK  153  A    between atoms: _390  and  _391
REMARK  154  A    between atoms: _391  and  _392
REMARK  155  A    between atoms: _392  and  _393
REMARK  156  A    between atoms: _393  and  _394
REMARK  157  A    between atoms: _398  and  _400
REMARK  158  A    between atoms: _400  and  _401
REMARK  159  A    between atoms: _400  and  _403
REMARK  160  A    between atoms: _403  and  _404
REMARK  161  A    between atoms: _407  and  _409
REMARK  162  A    between atoms: _409  and  _410
REMARK  163  A    between atoms: _409  and  _412
REMARK  164  A    between atoms: _412  and  _413
REMARK  165  A    between atoms: _418  and  _420
REMARK  166  A    between atoms: _420  and  _421
REMARK  167  A    between atoms: _423  and  _425
REMARK  168  A    between atoms: _425  and  _426
REMARK  169  A    between atoms: _425  and  _428
REMARK  170  A    between atoms: _428  and  _429
REMARK  171  A    between atoms: _429  and  _430
REMARK  172  A    between atoms: _430  and  _431
REMARK  173  A    between atoms: _431  and  _432
REMARK  174  A    between atoms: _436  and  _438
REMARK  175  A    between atoms: _438  and  _439
REMARK  176  A    between atoms: _438  and  _441
REMARK  177  A    between atoms: _441  and  _442
REMARK  178  A    between atoms: _442  and  _443
REMARK  179  A    between atoms: _443  and  _444
REMARK  180  A    between atoms: _453  and  _455
REMARK  181  A    between atoms: _455  and  _456
REMARK  182  A    between atoms: _455  and  _458
REMARK  183  A    between atoms: _458  and  _459
REMARK  184  A    between atoms: _464  and  _465
REMARK  185  A    between atoms: _467  and  _469
REMARK  186  A    between atoms: _469  and  _470
REMARK  187  A    between atoms: _469  and  _472
REMARK  188  A    between atoms: _472  and  _473
REMARK  189  A    between atoms: _473  and  _474
REMARK  190  A    between atoms: _474  and  _475
REMARK  191  A    between atoms: _475  and  _476
REMARK  192  A    between atoms: _480  and  _482
REMARK  193  A    between atoms: _482  and  _483
REMARK  194  A    between atoms: _482  and  _485
REMARK  195  A    between atoms: _485  and  _486
REMARK  196  A    between atoms: _488  and  _490
REMARK  197  A    between atoms: _490  and  _491
REMARK  198  A    between atoms: _490  and  _493
REMARK  199  A    between atoms: _493  and  _494
REMARK  200  A    between atoms: _497  and  _499
REMARK  201  A    between atoms: _499  and  _500
REMARK  202  A    between atoms: _499  and  _502
REMARK  203  A    between atoms: _502  and  _503
REMARK  204  A    between atoms: _503  and  _504
REMARK  205  A    between atoms: _507  and  _509
REMARK  206  A    between atoms: _509  and  _510
REMARK  207  A    between atoms: _513  and  _515
REMARK  208  A    between atoms: _515  and  _516
REMARK  209  A    between atoms: _515  and  _518
REMARK  210  A    between atoms: _518  and  _519
REMARK  211  A    between atoms: _521  and  _523
REMARK  212  A    between atoms: _523  and  _524
REMARK  213  A    between atoms: _526  and  _528
REMARK  214  A    between atoms: _528  and  _529
REMARK  215  A    between atoms: _528  and  _531
REMARK  216  A    between atoms: _531  and  _532
REMARK  217  A    between atoms: _535  and  _537
REMARK  218  A    between atoms: _537  and  _538
REMARK  219  A    between atoms: _540  and  _542
REMARK  220  A    between atoms: _542  and  _543
REMARK  221  A    between atoms: _542  and  _545
REMARK  222  A    between atoms: _545  and  _546
REMARK  223  A    between atoms: _551  and  _553
REMARK  224  A    between atoms: _553  and  _554
REMARK  225  A    between atoms: _553  and  _556
REMARK  226  A    between atoms: _556  and  _557
REMARK  227  A    between atoms: _557  and  _558
REMARK  228  A    between atoms: _565  and  _566
REMARK  229  A    between atoms: _566  and  _582
REMARK  230  A    between atoms: _567  and  _569
REMARK  231  A    between atoms: _569  and  _570
REMARK  232  A    between atoms: _570  and  _571
REMARK  233  A    between atoms: _575  and  _577
REMARK  234  A    between atoms: _577  and  _578
REMARK  235  A    between atoms: _577  and  _585
REMARK  236  A    between atoms: _578  and  _579
REMARK  237  A    between atoms: _579  and  _580
REMARK  238  A    between atoms: _580  and  _581
REMARK  239  A    between atoms: _581  and  _582
REMARK  240  A    between atoms: _587  and  _589
REMARK  241  A    between atoms: _589  and  _590
REMARK  242  A    between atoms: _589  and  _592
REMARK  243  A    between atoms: _592  and  _593
REMARK  244  A    between atoms: _596  and  _598
REMARK  245  A    between atoms: _598  and  _599
REMARK  246  A    between atoms: _601  and  _603
REMARK  247  A    between atoms: _603  and  _604
REMARK  248  A    between atoms: _607  and  _609
REMARK  249  A    between atoms: _609  and  _610
REMARK  250  A    between atoms: _609  and  _612
REMARK  251  A    between atoms: _612  and  _613
REMARK  252  A    between atoms: _618  and  _619
REMARK                            x       y       z     vdW  Elec       q    Type
REMARK                         _______ _______ _______ _____ _____    ______ ____
ROOT
ATOM      1  O   HOH     1      38.026  29.491  37.882  0.00  0.00    +0.000 OA
ENDROOT
TORSDOF 0
REMARK  Name = ../refined-set-2016/2qrh/2qrh_pocket.pdb
REMARK  252 active torsions:
REMARK  status: ('A' for Active; 'I' for Inactive)
REMARK    1  A    between atoms: _1  and  _3
REMARK    2  A    between atoms: _3  and  _4
REMARK    3  A    between atoms: _3  and  _6
REMARK    4  A    between atoms: _6  and  _7
REMARK    5  A    between atoms: _12  and  _13
REMARK    6  A    between atoms: _15  and  _17
REMARK    7  A    between atoms: _17  and  _18
REMARK    8  A    between atoms: _17  and  _20
REMARK    9  A    between atoms: _20  and  _21
REMARK   10  A    between atoms: _21  and  _22
REMARK   11  A    between atoms: _25  and  _27
REMARK   12  A    between atoms: _27  and  _28
REMARK   13  A    between atoms: _30  and  _32
REMARK   14  A    between atoms: _32  and  _33
REMARK   15  A    between atoms: _32  and  _35
REMARK   16  A    between atoms: _35  and  _36
REMARK   17  A    between atoms: _41  and  _43
REMARK   18  A    between atoms: _43  and  _44
REMARK   19  A    between atoms: _46  and  _48
REMARK   20  A    between atoms: _48  and  _49
REMARK   21  A    between atoms: _51  and  _53
REMARK   22  A    between atoms: _53  and  _54
REMARK   23  A    between atoms: _53  and  _56
REMARK   24  A    between atoms: _56  and  _57
REMARK   25  A    between atoms: _60  and  _62
REMARK   26  A    between atoms: _62  and  _63
REMARK   27  A    between atoms: _65  and  _67
REMARK   28  A    between atoms: _67  and  _68
REMARK   29  A    between atoms: _67  and  _70
REMARK   30  A    between atoms: _70  and  _71
REMARK   31  A    between atoms: _71  and  _72
REMARK   32  A    between atoms: _72  and  _73
REMARK   33  A    between atoms: _82  and  _84
REMARK   34  A    between atoms: _84  and  _85
REMARK   35  A    between atoms: _84  and  _87
REMARK   36  A    between atoms: _87  and  _88
REMARK   37  A    between atoms: _91  and  _93
REMARK   38  A    between atoms: _93  and  _94
REMARK   39  A    between atoms: _97  and  _99
REMARK   40  A    between atoms: _99  and  _100
REMARK   41  A    between atoms: _99  and  _102
REMARK   42  A    between atoms: _102  and  _103
REMARK   43  A    between atoms: _109  and  _111
REMARK   44  A    between atoms: _111  and  _112
REMARK   45  A    between atoms: _111  and  _114
REMARK   46  A    between atoms: _114  and  _115
REMARK   47  A    between atoms: _120  and  _121
REMARK   48  A    between atoms: _124  and  _125
REMARK   49  A    between atoms: _130  and  _132
REMARK   50  A    between atoms: _132  and  _133
REMARK   51  A    between atoms: _132  and  _135
REMARK   52  A    between atoms: _135  and  _136
REMARK   53  A    between atoms: _141  and  _143
REMARK   54  A    between atoms: _143  and  _144
REMARK   55  A    between atoms: _143  and  _146
REMARK   56  A    between atoms: _146  and  _147
REMARK   57  A    between atoms: _150  and  _152
REMARK   58  A    between atoms: _152  and  _153
REMARK   59  A    between atoms: _152  and  _155
REMARK   60  A    between atoms: _155  and  _156
REMARK   61  A    between atoms: _161  and  _163
REMARK   62  A    between atoms: _163  and  _164
REMARK   63  A    between atoms: _163  and  _166
REMARK   64  A    between atoms: _166  and  _167
REMARK   65  A    between atoms: _173  and  _175
REMARK   66  A    between atoms: _175  and  _176
REMARK   67  A    between atoms: _175  and  _178
REMARK   68  A    between atoms: _178  and  _179
REMARK   69  A    between atoms: _185  and  _187
REMARK   70  A    between atoms: _187  and  _188
REMARK   71  A    between atoms: _187  and  _190
REMARK   72  A    between atoms: _190  and  _191
REMARK   73  A    between atoms: _191  and  _192
REMARK   74  A    between atoms: _195  and  _197
REMARK   75  A    between atoms: _197  and  _198
REMARK   76  A    between atoms: _197  and  _200
REMARK   77  A    between atoms: _200  and  _201
REMARK   78  A    between atoms: _201  and  _202
REMARK   79  A    between atoms: _202  and  _203
REMARK   80  A    between atoms: _212  and  _214
REMARK   81  A    between atoms: _214  and  _215
REMARK   82  A    between atoms: _214  and  _217
REMARK   83  A    between atoms: _217  and  _218
REMARK   84  A    between atoms: _223  and  _225
REMARK   85  A    between atoms: _225  and  _226
REMARK   86  A    between atoms: _225  and  _228
REMARK   87  A    between atoms: _228  and  _229
REMARK   88  A    between atoms: _232  and  _234
REMARK   89  A    between atoms: _234  and  _235
REMARK   90  A    between atoms: _234  and  _237
REMARK   91  A    between atoms: _237  and  _238
REMARK   92  A    between atoms: _241  and  _243
REMARK   93  A    between atoms: _243  and  _244
REMARK   94  A    between atoms: _243  and  _246
REMARK   95  A    between atoms: _246  and  _247
REMARK   96  A    between atoms: _252  and  _254
REMARK   97  A    between atoms: _254  and  _255
REMARK   98  A    between atoms: _254  and  _257
REMARK   99  A    between atoms: _257  and  _258
REMARK  100  A    between atoms: _261  and  _263
REMARK  101  A    between atoms: _263  and  _264
REMARK  102  A    between atoms: _263  and  _266
REMARK  103  A    between atoms: _266  and  _267
REMARK  104  A    between atoms: _272  and  _274
REMARK  105  A    between atoms: _274  and  _275
REMARK  106  A    between atoms: _274  and  _277
REMARK  107  A    between atoms: _277  and  _278
REMARK  108  A    between atoms: _283  and  _285
REMARK  109  A    between atoms: _285  and  _286
REMARK  110  A    between atoms: _285  and  _288
REMARK  111  A    between atoms: _288  and  _289
REMARK  112  A    between atoms: _292  and  _294
REMARK  113  A    between atoms: _294  and  _295
REMARK  114  A    between atoms: _294  and  _297
REMARK  115  A    between atoms: _300  and  _302
REMARK  116  A    between atoms: _302  and  _303
REMARK  117  A    between atoms: _302  and  _305
REMARK  118  A    between atoms: _305  and  _306
REMARK  119  A    between atoms: _309  and  _311
REMARK  120  A    between atoms: _311  and  _312
REMARK  121  A    between atoms: _311  and  _314
REMARK  122  A    between atoms: _314  and  _315
REMARK  123  A    between atoms: _315  and  _316
REMARK  124  A    between atoms: _319  and  _321
REMARK  125  A    between atoms: _321  and  _322
REMARK  126  A    between atoms: _325  and  _327
REMARK  127  A    between atoms: _327  and  _328
REMARK  128  A    between atoms: _327  and  _330
REMARK  129  A    between atoms: _330  and  _331
REMARK  130  A    between atoms: _334  and  _336
REMARK  131  A    between atoms: _336  and  _337
REMARK  132  A    between atoms: _336  and  _339
REMARK  133  A    between atoms: _339  and  _340
REMARK  134  A    between atoms: _340  and  _341
REMARK  135  A    between atoms: _344  and  _346
REMARK  136  A    between atoms: _346  and  _347
REMARK  137  A    between atoms: _346  and  _349
REMARK  138  A    between atoms: _349  and  _350
REMARK  139  A    between atoms: _355  and  _357
REMARK  140  A    between atoms: _357  and  _358
REMARK  141  A    between atoms: _360  and  _362
REMARK  142  A    between atoms: _362  and  _363
REMARK  143  A    between atoms: _362  and  _365
REMARK  144  A    between atoms: _368  and  _370
REMARK  145  A    between atoms: _370  and  _371
REMARK  146  A    between atoms: _374  and  _376
REMARK  147  A    between atoms: _376  and  _377
REMARK  148  A    between atoms: _376  and  _379
REMARK  149  A    between atoms: _379  and  _380
REMARK  150  A    between atoms: _385  and  _387
REMARK  151  A    between atoms: _387  and  _388
REMARK  152  A    between atoms: _387  and  _390
REMARK  153  A    between atoms: _390  and  _391
REMARK  154  A    between atoms: _391  and  _392
REMARK  155  A    between atoms: _392  and  _393
REMARK  156  A    between atoms: _393  and  _394
REMARK  157  A    between atoms: _398  and  _400
REMARK  158  A    between atoms: _400  and  _401
REMARK  159  A    between atoms: _400  and  _403
REMARK  160  A    between atoms: _403  and  _404
REMARK  161  A    between atoms: _407  and  _409
REMARK  162  A    between atoms: _409  and  _410
REMARK  163  A    between atoms: _409  and  _412
REMARK  164  A    between atoms: _412  and  _413
REMARK  165  A    between atoms: _418  and  _420
REMARK  166  A    between atoms: _420  and  _421
REMARK  167  A    between atoms: _423  and  _425
REMARK  168  A    between atoms: _425  and  _426
REMARK  169  A    between atoms: _425  and  _428
REMARK  170  A    between atoms: _428  and  _429
REMARK  171  A    between atoms: _429  and  _430
REMARK  172  A    between atoms: _430  and  _431
REMARK  173  A    between atoms: _431  and  _432
REMARK  174  A    between atoms: _436  and  _438
REMARK  175  A    between atoms: _438  and  _439
REMARK  176  A    between atoms: _438  and  _441
REMARK  177  A    between atoms: _441  and  _442
REMARK  178  A    between atoms: _442  and  _443
REMARK  179  A    between atoms: _443  and  _444
REMARK  180  A    between atoms: _453  and  _455
REMARK  181  A    between atoms: _455  and  _456
REMARK  182  A    between atoms: _455  and  _458
REMARK  183  A    between atoms: _458  and  _459
REMARK  184  A    between atoms: _464  and  _465
REMARK  185  A    between atoms: _467  and  _469
REMARK  186  A    between atoms: _469  and  _470
REMARK  187  A    between atoms: _469  and  _472
REMARK  188  A    between atoms: _472  and  _473
REMARK  189  A    between atoms: _473  and  _474
REMARK  190  A    between atoms: _474  and  _475
REMARK  191  A    between atoms: _475  and  _476
REMARK  192  A    between atoms: _480  and  _482
REMARK  193  A    between atoms: _482  and  _483
REMARK  194  A    between atoms: _482  and  _485
REMARK  195  A    between atoms: _485  and  _486
REMARK  196  A    between atoms: _488  and  _490
REMARK  197  A    between atoms: _490  and  _491
REMARK  198  A    between atoms: _490  and  _493
REMARK  199  A    between atoms: _493  and  _494
REMARK  200  A    between atoms: _497  and  _499
REMARK  201  A    between atoms: _499  and  _500
REMARK  202  A    between atoms: _499  and  _502
REMARK  203  A    between atoms: _502  and  _503
REMARK  204  A    between atoms: _503  and  _504
REMARK  205  A    between atoms: _507  and  _509
REMARK  206  A    between atoms: _509  and  _510
REMARK  207  A    between atoms: _513  and  _515
REMARK  208  A    between atoms: _515  and  _516
REMARK  209  A    between atoms: _515  and  _518
REMARK  210  A    between atoms: _518  and  _519
REMARK  211  A    between atoms: _521  and  _523
REMARK  212  A    between atoms: _523  and  _524
REMARK  213  A    between atoms: _526  and  _528
REMARK  214  A    between atoms: _528  and  _529
REMARK  215  A    between atoms: _528  and  _531
REMARK  216  A    between atoms: _531  and  _532
REMARK  217  A    between atoms: _535  and  _537
REMARK  218  A    between atoms: _537  and  _538
REMARK  219  A    between atoms: _540  and  _542
REMARK  220  A    between atoms: _542  and  _543
REMARK  221  A    between atoms: _542  and  _545
REMARK  222  A    between atoms: _545  and  _546
REMARK  223  A    between atoms: _551  and  _553
REMARK  224  A    between atoms: _553  and  _554
REMARK  225  A    between atoms: _553  and  _556
REMARK  226  A    between atoms: _556  and  _557
REMARK  227  A    between atoms: _557  and  _558
REMARK  228  A    between atoms: _565  and  _566
REMARK  229  A    between atoms: _566  and  _582
REMARK  230  A    between atoms: _567  and  _569
REMARK  231  A    between atoms: _569  and  _570
REMARK  232  A    between atoms: _570  and  _571
REMARK  233  A    between atoms: _575  and  _577
REMARK  234  A    between atoms: _577  and  _578
REMARK  235  A    between atoms: _577  and  _585
REMARK  236  A    between atoms: _578  and  _579
REMARK  237  A    between atoms: _579  and  _580
REMARK  238  A    between atoms: _580  and  _581
REMARK  239  A    between atoms: _581  and  _582
REMARK  240  A    between atoms: _587  and  _589
REMARK  241  A    between atoms: _589  and  _590
REMARK  242  A    between atoms: _589  and  _592
REMARK  243  A    between atoms: _592  and  _593
REMARK  244  A    between atoms: _596  and  _598
REMARK  245  A    between atoms: _598  and  _599
REMARK  246  A    between atoms: _601  and  _603
REMARK  247  A    between atoms: _603  and  _604
REMARK  248  A    between atoms: _607  and  _609
REMARK  249  A    between atoms: _609  and  _610
REMARK  250  A    between atoms: _609  and  _612
REMARK  251  A    between atoms: _612  and  _613
REMARK  252  A    between atoms: _618  and  _619
REMARK                            x       y       z     vdW  Elec       q    Type
REMARK                         _______ _______ _______ _____ _____    ______ ____
ROOT
ATOM      1  O   HOH     1      35.962  23.875  37.309  0.00  0.00    +0.000 OA
ENDROOT
TORSDOF 0
REMARK  Name = ../refined-set-2016/2qrh/2qrh_pocket.pdb
REMARK  252 active torsions:
REMARK  status: ('A' for Active; 'I' for Inactive)
REMARK    1  A    between atoms: _1  and  _3
REMARK    2  A    between atoms: _3  and  _4
REMARK    3  A    between atoms: _3  and  _6
REMARK    4  A    between atoms: _6  and  _7
REMARK    5  A    between atoms: _12  and  _13
REMARK    6  A    between atoms: _15  and  _17
REMARK    7  A    between atoms: _17  and  _18
REMARK    8  A    between atoms: _17  and  _20
REMARK    9  A    between atoms: _20  and  _21
REMARK   10  A    between atoms: _21  and  _22
REMARK   11  A    between atoms: _25  and  _27
REMARK   12  A    between atoms: _27  and  _28
REMARK   13  A    between atoms: _30  and  _32
REMARK   14  A    between atoms: _32  and  _33
REMARK   15  A    between atoms: _32  and  _35
REMARK   16  A    between atoms: _35  and  _36
REMARK   17  A    between atoms: _41  and  _43
REMARK   18  A    between atoms: _43  and  _44
REMARK   19  A    between atoms: _46  and  _48
REMARK   20  A    between atoms: _48  and  _49
REMARK   21  A    between atoms: _51  and  _53
REMARK   22  A    between atoms: _53  and  _54
REMARK   23  A    between atoms: _53  and  _56
REMARK   24  A    between atoms: _56  and  _57
REMARK   25  A    between atoms: _60  and  _62
REMARK   26  A    between atoms: _62  and  _63
REMARK   27  A    between atoms: _65  and  _67
REMARK   28  A    between atoms: _67  and  _68
REMARK   29  A    between atoms: _67  and  _70
REMARK   30  A    between atoms: _70  and  _71
REMARK   31  A    between atoms: _71  and  _72
REMARK   32  A    between atoms: _72  and  _73
REMARK   33  A    between atoms: _82  and  _84
REMARK   34  A    between atoms: _84  and  _85
REMARK   35  A    between atoms: _84  and  _87
REMARK   36  A    between atoms: _87  and  _88
REMARK   37  A    between atoms: _91  and  _93
REMARK   38  A    between atoms: _93  and  _94
REMARK   39  A    between atoms: _97  and  _99
REMARK   40  A    between atoms: _99  and  _100
REMARK   41  A    between atoms: _99  and  _102
REMARK   42  A    between atoms: _102  and  _103
REMARK   43  A    between atoms: _109  and  _111
REMARK   44  A    between atoms: _111  and  _112
REMARK   45  A    between atoms: _111  and  _114
REMARK   46  A    between atoms: _114  and  _115
REMARK   47  A    between atoms: _120  and  _121
REMARK   48  A    between atoms: _124  and  _125
REMARK   49  A    between atoms: _130  and  _132
REMARK   50  A    between atoms: _132  and  _133
REMARK   51  A    between atoms: _132  and  _135
REMARK   52  A    between atoms: _135  and  _136
REMARK   53  A    between atoms: _141  and  _143
REMARK   54  A    between atoms: _143  and  _144
REMARK   55  A    between atoms: _143  and  _146
REMARK   56  A    between atoms: _146  and  _147
REMARK   57  A    between atoms: _150  and  _152
REMARK   58  A    between atoms: _152  and  _153
REMARK   59  A    between atoms: _152  and  _155
REMARK   60  A    between atoms: _155  and  _156
REMARK   61  A    between atoms: _161  and  _163
REMARK   62  A    between atoms: _163  and  _164
REMARK   63  A    between atoms: _163  and  _166
REMARK   64  A    between atoms: _166  and  _167
REMARK   65  A    between atoms: _173  and  _175
REMARK   66  A    between atoms: _175  and  _176
REMARK   67  A    between atoms: _175  and  _178
REMARK   68  A    between atoms: _178  and  _179
REMARK   69  A    between atoms: _185  and  _187
REMARK   70  A    between atoms: _187  and  _188
REMARK   71  A    between atoms: _187  and  _190
REMARK   72  A    between atoms: _190  and  _191
REMARK   73  A    between atoms: _191  and  _192
REMARK   74  A    between atoms: _195  and  _197
REMARK   75  A    between atoms: _197  and  _198
REMARK   76  A    between atoms: _197  and  _200
REMARK   77  A    between atoms: _200  and  _201
REMARK   78  A    between atoms: _201  and  _202
REMARK   79  A    between atoms: _202  and  _203
REMARK   80  A    between atoms: _212  and  _214
REMARK   81  A    between atoms: _214  and  _215
REMARK   82  A    between atoms: _214  and  _217
REMARK   83  A    between atoms: _217  and  _218
REMARK   84  A    between atoms: _223  and  _225
REMARK   85  A    between atoms: _225  and  _226
REMARK   86  A    between atoms: _225  and  _228
REMARK   87  A    between atoms: _228  and  _229
REMARK   88  A    between atoms: _232  and  _234
REMARK   89  A    between atoms: _234  and  _235
REMARK   90  A    between atoms: _234  and  _237
REMARK   91  A    between atoms: _237  and  _238
REMARK   92  A    between atoms: _241  and  _243
REMARK   93  A    between atoms: _243  and  _244
REMARK   94  A    between atoms: _243  and  _246
REMARK   95  A    between atoms: _246  and  _247
REMARK   96  A    between atoms: _252  and  _254
REMARK   97  A    between atoms: _254  and  _255
REMARK   98  A    between atoms: _254  and  _257
REMARK   99  A    between atoms: _257  and  _258
REMARK  100  A    between atoms: _261  and  _263
REMARK  101  A    between atoms: _263  and  _264
REMARK  102  A    between atoms: _263  and  _266
REMARK  103  A    between atoms: _266  and  _267
REMARK  104  A    between atoms: _272  and  _274
REMARK  105  A    between atoms: _274  and  _275
REMARK  106  A    between atoms: _274  and  _277
REMARK  107  A    between atoms: _277  and  _278
REMARK  108  A    between atoms: _283  and  _285
REMARK  109  A    between atoms: _285  and  _286
REMARK  110  A    between atoms: _285  and  _288
REMARK  111  A    between atoms: _288  and  _289
REMARK  112  A    between atoms: _292  and  _294
REMARK  113  A    between atoms: _294  and  _295
REMARK  114  A    between atoms: _294  and  _297
REMARK  115  A    between atoms: _300  and  _302
REMARK  116  A    between atoms: _302  and  _303
REMARK  117  A    between atoms: _302  and  _305
REMARK  118  A    between atoms: _305  and  _306
REMARK  119  A    between atoms: _309  and  _311
REMARK  120  A    between atoms: _311  and  _312
REMARK  121  A    between atoms: _311  and  _314
REMARK  122  A    between atoms: _314  and  _315
REMARK  123  A    between atoms: _315  and  _316
REMARK  124  A    between atoms: _319  and  _321
REMARK  125  A    between atoms: _321  and  _322
REMARK  126  A    between atoms: _325  and  _327
REMARK  127  A    between atoms: _327  and  _328
REMARK  128  A    between atoms: _327  and  _330
REMARK  129  A    between atoms: _330  and  _331
REMARK  130  A    between atoms: _334  and  _336
REMARK  131  A    between atoms: _336  and  _337
REMARK  132  A    between atoms: _336  and  _339
REMARK  133  A    between atoms: _339  and  _340
REMARK  134  A    between atoms: _340  and  _341
REMARK  135  A    between atoms: _344  and  _346
REMARK  136  A    between atoms: _346  and  _347
REMARK  137  A    between atoms: _346  and  _349
REMARK  138  A    between atoms: _349  and  _350
REMARK  139  A    between atoms: _355  and  _357
REMARK  140  A    between atoms: _357  and  _358
REMARK  141  A    between atoms: _360  and  _362
REMARK  142  A    between atoms: _362  and  _363
REMARK  143  A    between atoms: _362  and  _365
REMARK  144  A    between atoms: _368  and  _370
REMARK  145  A    between atoms: _370  and  _371
REMARK  146  A    between atoms: _374  and  _376
REMARK  147  A    between atoms: _376  and  _377
REMARK  148  A    between atoms: _376  and  _379
REMARK  149  A    between atoms: _379  and  _380
REMARK  150  A    between atoms: _385  and  _387
REMARK  151  A    between atoms: _387  and  _388
REMARK  152  A    between atoms: _387  and  _390
REMARK  153  A    between atoms: _390  and  _391
REMARK  154  A    between atoms: _391  and  _392
REMARK  155  A    between atoms: _392  and  _393
REMARK  156  A    between atoms: _393  and  _394
REMARK  157  A    between atoms: _398  and  _400
REMARK  158  A    between atoms: _400  and  _401
REMARK  159  A    between atoms: _400  and  _403
REMARK  160  A    between atoms: _403  and  _404
REMARK  161  A    between atoms: _407  and  _409
REMARK  162  A    between atoms: _409  and  _410
REMARK  163  A    between atoms: _409  and  _412
REMARK  164  A    between atoms: _412  and  _413
REMARK  165  A    between atoms: _418  and  _420
REMARK  166  A    between atoms: _420  and  _421
REMARK  167  A    between atoms: _423  and  _425
REMARK  168  A    between atoms: _425  and  _426
REMARK  169  A    between atoms: _425  and  _428
REMARK  170  A    between atoms: _428  and  _429
REMARK  171  A    between atoms: _429  and  _430
REMARK  172  A    between atoms: _430  and  _431
REMARK  173  A    between atoms: _431  and  _432
REMARK  174  A    between atoms: _436  and  _438
REMARK  175  A    between atoms: _438  and  _439
REMARK  176  A    between atoms: _438  and  _441
REMARK  177  A    between atoms: _441  and  _442
REMARK  178  A    between atoms: _442  and  _443
REMARK  179  A    between atoms: _443  and  _444
REMARK  180  A    between atoms: _453  and  _455
REMARK  181  A    between atoms: _455  and  _456
REMARK  182  A    between atoms: _455  and  _458
REMARK  183  A    between atoms: _458  and  _459
REMARK  184  A    between atoms: _464  and  _465
REMARK  185  A    between atoms: _467  and  _469
REMARK  186  A    between atoms: _469  and  _470
REMARK  187  A    between atoms: _469  and  _472
REMARK  188  A    between atoms: _472  and  _473
REMARK  189  A    between atoms: _473  and  _474
REMARK  190  A    between atoms: _474  and  _475
REMARK  191  A    between atoms: _475  and  _476
REMARK  192  A    between atoms: _480  and  _482
REMARK  193  A    between atoms: _482  and  _483
REMARK  194  A    between atoms: _482  and  _485
REMARK  195  A    between atoms: _485  and  _486
REMARK  196  A    between atoms: _488  and  _490
REMARK  197  A    between atoms: _490  and  _491
REMARK  198  A    between atoms: _490  and  _493
REMARK  199  A    between atoms: _493  and  _494
REMARK  200  A    between atoms: _497  and  _499
REMARK  201  A    between atoms: _499  and  _500
REMARK  202  A    between atoms: _499  and  _502
REMARK  203  A    between atoms: _502  and  _503
REMARK  204  A    between atoms: _503  and  _504
REMARK  205  A    between atoms: _507  and  _509
REMARK  206  A    between atoms: _509  and  _510
REMARK  207  A    between atoms: _513  and  _515
REMARK  208  A    between atoms: _515  and  _516
REMARK  209  A    between atoms: _515  and  _518
REMARK  210  A    between atoms: _518  and  _519
REMARK  211  A    between atoms: _521  and  _523
REMARK  212  A    between atoms: _523  and  _524
REMARK  213  A    between atoms: _526  and  _528
REMARK  214  A    between atoms: _528  and  _529
REMARK  215  A    between atoms: _528  and  _531
REMARK  216  A    between atoms: _531  and  _532
REMARK  217  A    between atoms: _535  and  _537
REMARK  218  A    between atoms: _537  and  _538
REMARK  219  A    between atoms: _540  and  _542
REMARK  220  A    between atoms: _542  and  _543
REMARK  221  A    between atoms: _542  and  _545
REMARK  222  A    between atoms: _545  and  _546
REMARK  223  A    between atoms: _551  and  _553
REMARK  224  A    between atoms: _553  and  _554
REMARK  225  A    between atoms: _553  and  _556
REMARK  226  A    between atoms: _556  and  _557
REMARK  227  A    between atoms: _557  and  _558
REMARK  228  A    between atoms: _565  and  _566
REMARK  229  A    between atoms: _566  and  _582
REMARK  230  A    between atoms: _567  and  _569
REMARK  231  A    between atoms: _569  and  _570
REMARK  232  A    between atoms: _570  and  _571
REMARK  233  A    between atoms: _575  and  _577
REMARK  234  A    between atoms: _577  and  _578
REMARK  235  A    between atoms: _577  and  _585
REMARK  236  A    between atoms: _578  and  _579
REMARK  237  A    between atoms: _579  and  _580
REMARK  238  A    between atoms: _580  and  _581
REMARK  239  A    between atoms: _581  and  _582
REMARK  240  A    between atoms: _587  and  _589
REMARK  241  A    between atoms: _589  and  _590
REMARK  242  A    between atoms: _589  and  _592
REMARK  243  A    between atoms: _592  and  _593
REMARK  244  A    between atoms: _596  and  _598
REMARK  245  A    between atoms: _598  and  _599
REMARK  246  A    between atoms: _601  and  _603
REMARK  247  A    between atoms: _603  and  _604
REMARK  248  A    between atoms: _607  and  _609
REMARK  249  A    between atoms: _609  and  _610
REMARK  250  A    between atoms: _609  and  _612
REMARK  251  A    between atoms: _612  and  _613
REMARK  252  A    between atoms: _618  and  _619
REMARK                            x       y       z     vdW  Elec       q    Type
REMARK                         _______ _______ _______ _____ _____    ______ ____
ROOT
ATOM      1  O   HOH     1      34.873  26.436  38.571  0.00  0.00    +0.000 OA
ENDROOT
TORSDOF 0
REMARK  Name = ../refined-set-2016/2qrh/2qrh_pocket.pdb
REMARK  252 active torsions:
REMARK  status: ('A' for Active; 'I' for Inactive)
REMARK    1  A    between atoms: _1  and  _3
REMARK    2  A    between atoms: _3  and  _4
REMARK    3  A    between atoms: _3  and  _6
REMARK    4  A    between atoms: _6  and  _7
REMARK    5  A    between atoms: _12  and  _13
REMARK    6  A    between atoms: _15  and  _17
REMARK    7  A    between atoms: _17  and  _18
REMARK    8  A    between atoms: _17  and  _20
REMARK    9  A    between atoms: _20  and  _21
REMARK   10  A    between atoms: _21  and  _22
REMARK   11  A    between atoms: _25  and  _27
REMARK   12  A    between atoms: _27  and  _28
REMARK   13  A    between atoms: _30  and  _32
REMARK   14  A    between atoms: _32  and  _33
REMARK   15  A    between atoms: _32  and  _35
REMARK   16  A    between atoms: _35  and  _36
REMARK   17  A    between atoms: _41  and  _43
REMARK   18  A    between atoms: _43  and  _44
REMARK   19  A    between atoms: _46  and  _48
REMARK   20  A    between atoms: _48  and  _49
REMARK   21  A    between atoms: _51  and  _53
REMARK   22  A    between atoms: _53  and  _54
REMARK   23  A    between atoms: _53  and  _56
REMARK   24  A    between atoms: _56  and  _57
REMARK   25  A    between atoms: _60  and  _62
REMARK   26  A    between atoms: _62  and  _63
REMARK   27  A    between atoms: _65  and  _67
REMARK   28  A    between atoms: _67  and  _68
REMARK   29  A    between atoms: _67  and  _70
REMARK   30  A    between atoms: _70  and  _71
REMARK   31  A    between atoms: _71  and  _72
REMARK   32  A    between atoms: _72  and  _73
REMARK   33  A    between atoms: _82  and  _84
REMARK   34  A    between atoms: _84  and  _85
REMARK   35  A    between atoms: _84  and  _87
REMARK   36  A    between atoms: _87  and  _88
REMARK   37  A    between atoms: _91  and  _93
REMARK   38  A    between atoms: _93  and  _94
REMARK   39  A    between atoms: _97  and  _99
REMARK   40  A    between atoms: _99  and  _100
REMARK   41  A    between atoms: _99  and  _102
REMARK   42  A    between atoms: _102  and  _103
REMARK   43  A    between atoms: _109  and  _111
REMARK   44  A    between atoms: _111  and  _112
REMARK   45  A    between atoms: _111  and  _114
REMARK   46  A    between atoms: _114  and  _115
REMARK   47  A    between atoms: _120  and  _121
REMARK   48  A    between atoms: _124  and  _125
REMARK   49  A    between atoms: _130  and  _132
REMARK   50  A    between atoms: _132  and  _133
REMARK   51  A    between atoms: _132  and  _135
REMARK   52  A    between atoms: _135  and  _136
REMARK   53  A    between atoms: _141  and  _143
REMARK   54  A    between atoms: _143  and  _144
REMARK   55  A    between atoms: _143  and  _146
REMARK   56  A    between atoms: _146  and  _147
REMARK   57  A    between atoms: _150  and  _152
REMARK   58  A    between atoms: _152  and  _153
REMARK   59  A    between atoms: _152  and  _155
REMARK   60  A    between atoms: _155  and  _156
REMARK   61  A    between atoms: _161  and  _163
REMARK   62  A    between atoms: _163  and  _164
REMARK   63  A    between atoms: _163  and  _166
REMARK   64  A    between atoms: _166  and  _167
REMARK   65  A    between atoms: _173  and  _175
REMARK   66  A    between atoms: _175  and  _176
REMARK   67  A    between atoms: _175  and  _178
REMARK   68  A    between atoms: _178  and  _179
REMARK   69  A    between atoms: _185  and  _187
REMARK   70  A    between atoms: _187  and  _188
REMARK   71  A    between atoms: _187  and  _190
REMARK   72  A    between atoms: _190  and  _191
REMARK   73  A    between atoms: _191  and  _192
REMARK   74  A    between atoms: _195  and  _197
REMARK   75  A    between atoms: _197  and  _198
REMARK   76  A    between atoms: _197  and  _200
REMARK   77  A    between atoms: _200  and  _201
REMARK   78  A    between atoms: _201  and  _202
REMARK   79  A    between atoms: _202  and  _203
REMARK   80  A    between atoms: _212  and  _214
REMARK   81  A    between atoms: _214  and  _215
REMARK   82  A    between atoms: _214  and  _217
REMARK   83  A    between atoms: _217  and  _218
REMARK   84  A    between atoms: _223  and  _225
REMARK   85  A    between atoms: _225  and  _226
REMARK   86  A    between atoms: _225  and  _228
REMARK   87  A    between atoms: _228  and  _229
REMARK   88  A    between atoms: _232  and  _234
REMARK   89  A    between atoms: _234  and  _235
REMARK   90  A    between atoms: _234  and  _237
REMARK   91  A    between atoms: _237  and  _238
REMARK   92  A    between atoms: _241  and  _243
REMARK   93  A    between atoms: _243  and  _244
REMARK   94  A    between atoms: _243  and  _246
REMARK   95  A    between atoms: _246  and  _247
REMARK   96  A    between atoms: _252  and  _254
REMARK   97  A    between atoms: _254  and  _255
REMARK   98  A    between atoms: _254  and  _257
REMARK   99  A    between atoms: _257  and  _258
REMARK  100  A    between atoms: _261  and  _263
REMARK  101  A    between atoms: _263  and  _264
REMARK  102  A    between atoms: _263  and  _266
REMARK  103  A    between atoms: _266  and  _267
REMARK  104  A    between atoms: _272  and  _274
REMARK  105  A    between atoms: _274  and  _275
REMARK  106  A    between atoms: _274  and  _277
REMARK  107  A    between atoms: _277  and  _278
REMARK  108  A    between atoms: _283  and  _285
REMARK  109  A    between atoms: _285  and  _286
REMARK  110  A    between atoms: _285  and  _288
REMARK  111  A    between atoms: _288  and  _289
REMARK  112  A    between atoms: _292  and  _294
REMARK  113  A    between atoms: _294  and  _295
REMARK  114  A    between atoms: _294  and  _297
REMARK  115  A    between atoms: _300  and  _302
REMARK  116  A    between atoms: _302  and  _303
REMARK  117  A    between atoms: _302  and  _305
REMARK  118  A    between atoms: _305  and  _306
REMARK  119  A    between atoms: _309  and  _311
REMARK  120  A    between atoms: _311  and  _312
REMARK  121  A    between atoms: _311  and  _314
REMARK  122  A    between atoms: _314  and  _315
REMARK  123  A    between atoms: _315  and  _316
REMARK  124  A    between atoms: _319  and  _321
REMARK  125  A    between atoms: _321  and  _322
REMARK  126  A    between atoms: _325  and  _327
REMARK  127  A    between atoms: _327  and  _328
REMARK  128  A    between atoms: _327  and  _330
REMARK  129  A    between atoms: _330  and  _331
REMARK  130  A    between atoms: _334  and  _336
REMARK  131  A    between atoms: _336  and  _337
REMARK  132  A    between atoms: _336  and  _339
REMARK  133  A    between atoms: _339  and  _340
REMARK  134  A    between atoms: _340  and  _341
REMARK  135  A    between atoms: _344  and  _346
REMARK  136  A    between atoms: _346  and  _347
REMARK  137  A    between atoms: _346  and  _349
REMARK  138  A    between atoms: _349  and  _350
REMARK  139  A    between atoms: _355  and  _357
REMARK  140  A    between atoms: _357  and  _358
REMARK  141  A    between atoms: _360  and  _362
REMARK  142  A    between atoms: _362  and  _363
REMARK  143  A    between atoms: _362  and  _365
REMARK  144  A    between atoms: _368  and  _370
REMARK  145  A    between atoms: _370  and  _371
REMARK  146  A    between atoms: _374  and  _376
REMARK  147  A    between atoms: _376  and  _377
REMARK  148  A    between atoms: _376  and  _379
REMARK  149  A    between atoms: _379  and  _380
REMARK  150  A    between atoms: _385  and  _387
REMARK  151  A    between atoms: _387  and  _388
REMARK  152  A    between atoms: _387  and  _390
REMARK  153  A    between atoms: _390  and  _391
REMARK  154  A    between atoms: _391  and  _392
REMARK  155  A    between atoms: _392  and  _393
REMARK  156  A    between atoms: _393  and  _394
REMARK  157  A    between atoms: _398  and  _400
REMARK  158  A    between atoms: _400  and  _401
REMARK  159  A    between atoms: _400  and  _403
REMARK  160  A    between atoms: _403  and  _404
REMARK  161  A    between atoms: _407  and  _409
REMARK  162  A    between atoms: _409  and  _410
REMARK  163  A    between atoms: _409  and  _412
REMARK  164  A    between atoms: _412  and  _413
REMARK  165  A    between atoms: _418  and  _420
REMARK  166  A    between atoms: _420  and  _421
REMARK  167  A    between atoms: _423  and  _425
REMARK  168  A    between atoms: _425  and  _426
REMARK  169  A    between atoms: _425  and  _428
REMARK  170  A    between atoms: _428  and  _429
REMARK  171  A    between atoms: _429  and  _430
REMARK  172  A    between atoms: _430  and  _431
REMARK  173  A    between atoms: _431  and  _432
REMARK  174  A    between atoms: _436  and  _438
REMARK  175  A    between atoms: _438  and  _439
REMARK  176  A    between atoms: _438  and  _441
REMARK  177  A    between atoms: _441  and  _442
REMARK  178  A    between atoms: _442  and  _443
REMARK  179  A    between atoms: _443  and  _444
REMARK  180  A    between atoms: _453  and  _455
REMARK  181  A    between atoms: _455  and  _456
REMARK  182  A    between atoms: _455  and  _458
REMARK  183  A    between atoms: _458  and  _459
REMARK  184  A    between atoms: _464  and  _465
REMARK  185  A    between atoms: _467  and  _469
REMARK  186  A    between atoms: _469  and  _470
REMARK  187  A    between atoms: _469  and  _472
REMARK  188  A    between atoms: _472  and  _473
REMARK  189  A    between atoms: _473  and  _474
REMARK  190  A    between atoms: _474  and  _475
REMARK  191  A    between atoms: _475  and  _476
REMARK  192  A    between atoms: _480  and  _482
REMARK  193  A    between atoms: _482  and  _483
REMARK  194  A    between atoms: _482  and  _485
REMARK  195  A    between atoms: _485  and  _486
REMARK  196  A    between atoms: _488  and  _490
REMARK  197  A    between atoms: _490  and  _491
REMARK  198  A    between atoms: _490  and  _493
REMARK  199  A    between atoms: _493  and  _494
REMARK  200  A    between atoms: _497  and  _499
REMARK  201  A    between atoms: _499  and  _500
REMARK  202  A    between atoms: _499  and  _502
REMARK  203  A    between atoms: _502  and  _503
REMARK  204  A    between atoms: _503  and  _504
REMARK  205  A    between atoms: _507  and  _509
REMARK  206  A    between atoms: _509  and  _510
REMARK  207  A    between atoms: _513  and  _515
REMARK  208  A    between atoms: _515  and  _516
REMARK  209  A    between atoms: _515  and  _518
REMARK  210  A    between atoms: _518  and  _519
REMARK  211  A    between atoms: _521  and  _523
REMARK  212  A    between atoms: _523  and  _524
REMARK  213  A    between atoms: _526  and  _528
REMARK  214  A    between atoms: _528  and  _529
REMARK  215  A    between atoms: _528  and  _531
REMARK  216  A    between atoms: _531  and  _532
REMARK  217  A    between atoms: _535  and  _537
REMARK  218  A    between atoms: _537  and  _538
REMARK  219  A    between atoms: _540  and  _542
REMARK  220  A    between atoms: _542  and  _543
REMARK  221  A    between atoms: _542  and  _545
REMARK  222  A    between atoms: _545  and  _546
REMARK  223  A    between atoms: _551  and  _553
REMARK  224  A    between atoms: _553  and  _554
REMARK  225  A    between atoms: _553  and  _556
REMARK  226  A    between atoms: _556  and  _557
REMARK  227  A    between atoms: _557  and  _558
REMARK  228  A    between atoms: _565  and  _566
REMARK  229  A    between atoms: _566  and  _582
REMARK  230  A    between atoms: _567  and  _569
REMARK  231  A    between atoms: _569  and  _570
REMARK  232  A    between atoms: _570  and  _571
REMARK  233  A    between atoms: _575  and  _577
REMARK  234  A    between atoms: _577  and  _578
REMARK  235  A    between atoms: _577  and  _585
REMARK  236  A    between atoms: _578  and  _579
REMARK  237  A    between atoms: _579  and  _580
REMARK  238  A    between atoms: _580  and  _581
REMARK  239  A    between atoms: _581  and  _582
REMARK  240  A    between atoms: _587  and  _589
REMARK  241  A    between atoms: _589  and  _590
REMARK  242  A    between atoms: _589  and  _592
REMARK  243  A    between atoms: _592  and  _593
REMARK  244  A    between atoms: _596  and  _598
REMARK  245  A    between atoms: _598  and  _599
REMARK  246  A    between atoms: _601  and  _603
REMARK  247  A    between atoms: _603  and  _604
REMARK  248  A    between atoms: _607  and  _609
REMARK  249  A    between atoms: _609  and  _610
REMARK  250  A    between atoms: _609  and  _612
REMARK  251  A    between atoms: _612  and  _613
REMARK  252  A    between atoms: _618  and  _619
REMARK                            x       y       z     vdW  Elec       q    Type
REMARK                         _______ _______ _______ _____ _____    ______ ____
ROOT
ATOM      1  O   HOH     1      40.774  28.870  38.108  0.00  0.00    +0.000 OA
ENDROOT
TORSDOF 0
REMARK  Name = ../refined-set-2016/2qrh/2qrh_pocket.pdb
REMARK  252 active torsions:
REMARK  status: ('A' for Active; 'I' for Inactive)
REMARK    1  A    between atoms: _1  and  _3
REMARK    2  A    between atoms: _3  and  _4
REMARK    3  A    between atoms: _3  and  _6
REMARK    4  A    between atoms: _6  and  _7
REMARK    5  A    between atoms: _12  and  _13
REMARK    6  A    between atoms: _15  and  _17
REMARK    7  A    between atoms: _17  and  _18
REMARK    8  A    between atoms: _17  and  _20
REMARK    9  A    between atoms: _20  and  _21
REMARK   10  A    between atoms: _21  and  _22
REMARK   11  A    between atoms: _25  and  _27
REMARK   12  A    between atoms: _27  and  _28
REMARK   13  A    between atoms: _30  and  _32
REMARK   14  A    between atoms: _32  and  _33
REMARK   15  A    between atoms: _32  and  _35
REMARK   16  A    between atoms: _35  and  _36
REMARK   17  A    between atoms: _41  and  _43
REMARK   18  A    between atoms: _43  and  _44
REMARK   19  A    between atoms: _46  and  _48
REMARK   20  A    between atoms: _48  and  _49
REMARK   21  A    between atoms: _51  and  _53
REMARK   22  A    between atoms: _53  and  _54
REMARK   23  A    between atoms: _53  and  _56
REMARK   24  A    between atoms: _56  and  _57
REMARK   25  A    between atoms: _60  and  _62
REMARK   26  A    between atoms: _62  and  _63
REMARK   27  A    between atoms: _65  and  _67
REMARK   28  A    between atoms: _67  and  _68
REMARK   29  A    between atoms: _67  and  _70
REMARK   30  A    between atoms: _70  and  _71
REMARK   31  A    between atoms: _71  and  _72
REMARK   32  A    between atoms: _72  and  _73
REMARK   33  A    between atoms: _82  and  _84
REMARK   34  A    between atoms: _84  and  _85
REMARK   35  A    between atoms: _84  and  _87
REMARK   36  A    between atoms: _87  and  _88
REMARK   37  A    between atoms: _91  and  _93
REMARK   38  A    between atoms: _93  and  _94
REMARK   39  A    between atoms: _97  and  _99
REMARK   40  A    between atoms: _99  and  _100
REMARK   41  A    between atoms: _99  and  _102
REMARK   42  A    between atoms: _102  and  _103
REMARK   43  A    between atoms: _109  and  _111
REMARK   44  A    between atoms: _111  and  _112
REMARK   45  A    between atoms: _111  and  _114
REMARK   46  A    between atoms: _114  and  _115
REMARK   47  A    between atoms: _120  and  _121
REMARK   48  A    between atoms: _124  and  _125
REMARK   49  A    between atoms: _130  and  _132
REMARK   50  A    between atoms: _132  and  _133
REMARK   51  A    between atoms: _132  and  _135
REMARK   52  A    between atoms: _135  and  _136
REMARK   53  A    between atoms: _141  and  _143
REMARK   54  A    between atoms: _143  and  _144
REMARK   55  A    between atoms: _143  and  _146
REMARK   56  A    between atoms: _146  and  _147
REMARK   57  A    between atoms: _150  and  _152
REMARK   58  A    between atoms: _152  and  _153
REMARK   59  A    between atoms: _152  and  _155
REMARK   60  A    between atoms: _155  and  _156
REMARK   61  A    between atoms: _161  and  _163
REMARK   62  A    between atoms: _163  and  _164
REMARK   63  A    between atoms: _163  and  _166
REMARK   64  A    between atoms: _166  and  _167
REMARK   65  A    between atoms: _173  and  _175
REMARK   66  A    between atoms: _175  and  _176
REMARK   67  A    between atoms: _175  and  _178
REMARK   68  A    between atoms: _178  and  _179
REMARK   69  A    between atoms: _185  and  _187
REMARK   70  A    between atoms: _187  and  _188
REMARK   71  A    between atoms: _187  and  _190
REMARK   72  A    between atoms: _190  and  _191
REMARK   73  A    between atoms: _191  and  _192
REMARK   74  A    between atoms: _195  and  _197
REMARK   75  A    between atoms: _197  and  _198
REMARK   76  A    between atoms: _197  and  _200
REMARK   77  A    between atoms: _200  and  _201
REMARK   78  A    between atoms: _201  and  _202
REMARK   79  A    between atoms: _202  and  _203
REMARK   80  A    between atoms: _212  and  _214
REMARK   81  A    between atoms: _214  and  _215
REMARK   82  A    between atoms: _214  and  _217
REMARK   83  A    between atoms: _217  and  _218
REMARK   84  A    between atoms: _223  and  _225
REMARK   85  A    between atoms: _225  and  _226
REMARK   86  A    between atoms: _225  and  _228
REMARK   87  A    between atoms: _228  and  _229
REMARK   88  A    between atoms: _232  and  _234
REMARK   89  A    between atoms: _234  and  _235
REMARK   90  A    between atoms: _234  and  _237
REMARK   91  A    between atoms: _237  and  _238
REMARK   92  A    between atoms: _241  and  _243
REMARK   93  A    between atoms: _243  and  _244
REMARK   94  A    between atoms: _243  and  _246
REMARK   95  A    between atoms: _246  and  _247
REMARK   96  A    between atoms: _252  and  _254
REMARK   97  A    between atoms: _254  and  _255
REMARK   98  A    between atoms: _254  and  _257
REMARK   99  A    between atoms: _257  and  _258
REMARK  100  A    between atoms: _261  and  _263
REMARK  101  A    between atoms: _263  and  _264
REMARK  102  A    between atoms: _263  and  _266
REMARK  103  A    between atoms: _266  and  _267
REMARK  104  A    between atoms: _272  and  _274
REMARK  105  A    between atoms: _274  and  _275
REMARK  106  A    between atoms: _274  and  _277
REMARK  107  A    between atoms: _277  and  _278
REMARK  108  A    between atoms: _283  and  _285
REMARK  109  A    between atoms: _285  and  _286
REMARK  110  A    between atoms: _285  and  _288
REMARK  111  A    between atoms: _288  and  _289
REMARK  112  A    between atoms: _292  and  _294
REMARK  113  A    between atoms: _294  and  _295
REMARK  114  A    between atoms: _294  and  _297
REMARK  115  A    between atoms: _300  and  _302
REMARK  116  A    between atoms: _302  and  _303
REMARK  117  A    between atoms: _302  and  _305
REMARK  118  A    between atoms: _305  and  _306
REMARK  119  A    between atoms: _309  and  _311
REMARK  120  A    between atoms: _311  and  _312
REMARK  121  A    between atoms: _311  and  _314
REMARK  122  A    between atoms: _314  and  _315
REMARK  123  A    between atoms: _315  and  _316
REMARK  124  A    between atoms: _319  and  _321
REMARK  125  A    between atoms: _321  and  _322
REMARK  126  A    between atoms: _325  and  _327
REMARK  127  A    between atoms: _327  and  _328
REMARK  128  A    between atoms: _327  and  _330
REMARK  129  A    between atoms: _330  and  _331
REMARK  130  A    between atoms: _334  and  _336
REMARK  131  A    between atoms: _336  and  _337
REMARK  132  A    between atoms: _336  and  _339
REMARK  133  A    between atoms: _339  and  _340
REMARK  134  A    between atoms: _340  and  _341
REMARK  135  A    between atoms: _344  and  _346
REMARK  136  A    between atoms: _346  and  _347
REMARK  137  A    between atoms: _346  and  _349
REMARK  138  A    between atoms: _349  and  _350
REMARK  139  A    between atoms: _355  and  _357
REMARK  140  A    between atoms: _357  and  _358
REMARK  141  A    between atoms: _360  and  _362
REMARK  142  A    between atoms: _362  and  _363
REMARK  143  A    between atoms: _362  and  _365
REMARK  144  A    between atoms: _368  and  _370
REMARK  145  A    between atoms: _370  and  _371
REMARK  146  A    between atoms: _374  and  _376
REMARK  147  A    between atoms: _376  and  _377
REMARK  148  A    between atoms: _376  and  _379
REMARK  149  A    between atoms: _379  and  _380
REMARK  150  A    between atoms: _385  and  _387
REMARK  151  A    between atoms: _387  and  _388
REMARK  152  A    between atoms: _387  and  _390
REMARK  153  A    between atoms: _390  and  _391
REMARK  154  A    between atoms: _391  and  _392
REMARK  155  A    between atoms: _392  and  _393
REMARK  156  A    between atoms: _393  and  _394
REMARK  157  A    between atoms: _398  and  _400
REMARK  158  A    between atoms: _400  and  _401
REMARK  159  A    between atoms: _400  and  _403
REMARK  160  A    between atoms: _403  and  _404
REMARK  161  A    between atoms: _407  and  _409
REMARK  162  A    between atoms: _409  and  _410
REMARK  163  A    between atoms: _409  and  _412
REMARK  164  A    between atoms: _412  and  _413
REMARK  165  A    between atoms: _418  and  _420
REMARK  166  A    between atoms: _420  and  _421
REMARK  167  A    between atoms: _423  and  _425
REMARK  168  A    between atoms: _425  and  _426
REMARK  169  A    between atoms: _425  and  _428
REMARK  170  A    between atoms: _428  and  _429
REMARK  171  A    between atoms: _429  and  _430
REMARK  172  A    between atoms: _430  and  _431
REMARK  173  A    between atoms: _431  and  _432
REMARK  174  A    between atoms: _436  and  _438
REMARK  175  A    between atoms: _438  and  _439
REMARK  176  A    between atoms: _438  and  _441
REMARK  177  A    between atoms: _441  and  _442
REMARK  178  A    between atoms: _442  and  _443
REMARK  179  A    between atoms: _443  and  _444
REMARK  180  A    between atoms: _453  and  _455
REMARK  181  A    between atoms: _455  and  _456
REMARK  182  A    between atoms: _455  and  _458
REMARK  183  A    between atoms: _458  and  _459
REMARK  184  A    between atoms: _464  and  _465
REMARK  185  A    between atoms: _467  and  _469
REMARK  186  A    between atoms: _469  and  _470
REMARK  187  A    between atoms: _469  and  _472
REMARK  188  A    between atoms: _472  and  _473
REMARK  189  A    between atoms: _473  and  _474
REMARK  190  A    between atoms: _474  and  _475
REMARK  191  A    between atoms: _475  and  _476
REMARK  192  A    between atoms: _480  and  _482
REMARK  193  A    between atoms: _482  and  _483
REMARK  194  A    between atoms: _482  and  _485
REMARK  195  A    between atoms: _485  and  _486
REMARK  196  A    between atoms: _488  and  _490
REMARK  197  A    between atoms: _490  and  _491
REMARK  198  A    between atoms: _490  and  _493
REMARK  199  A    between atoms: _493  and  _494
REMARK  200  A    between atoms: _497  and  _499
REMARK  201  A    between atoms: _499  and  _500
REMARK  202  A    between atoms: _499  and  _502
REMARK  203  A    between atoms: _502  and  _503
REMARK  204  A    between atoms: _503  and  _504
REMARK  205  A    between atoms: _507  and  _509
REMARK  206  A    between atoms: _509  and  _510
REMARK  207  A    between atoms: _513  and  _515
REMARK  208  A    between atoms: _515  and  _516
REMARK  209  A    between atoms: _515  and  _518
REMARK  210  A    between atoms: _518  and  _519
REMARK  211  A    between atoms: _521  and  _523
REMARK  212  A    between atoms: _523  and  _524
REMARK  213  A    between atoms: _526  and  _528
REMARK  214  A    between atoms: _528  and  _529
REMARK  215  A    between atoms: _528  and  _531
REMARK  216  A    between atoms: _531  and  _532
REMARK  217  A    between atoms: _535  and  _537
REMARK  218  A    between atoms: _537  and  _538
REMARK  219  A    between atoms: _540  and  _542
REMARK  220  A    between atoms: _542  and  _543
REMARK  221  A    between atoms: _542  and  _545
REMARK  222  A    between atoms: _545  and  _546
REMARK  223  A    between atoms: _551  and  _553
REMARK  224  A    between atoms: _553  and  _554
REMARK  225  A    between atoms: _553  and  _556
REMARK  226  A    between atoms: _556  and  _557
REMARK  227  A    between atoms: _557  and  _558
REMARK  228  A    between atoms: _565  and  _566
REMARK  229  A    between atoms: _566  and  _582
REMARK  230  A    between atoms: _567  and  _569
REMARK  231  A    between atoms: _569  and  _570
REMARK  232  A    between atoms: _570  and  _571
REMARK  233  A    between atoms: _575  and  _577
REMARK  234  A    between atoms: _577  and  _578
REMARK  235  A    between atoms: _577  and  _585
REMARK  236  A    between atoms: _578  and  _579
REMARK  237  A    between atoms: _579  and  _580
REMARK  238  A    between atoms: _580  and  _581
REMARK  239  A    between atoms: _581  and  _582
REMARK  240  A    between atoms: _587  and  _589
REMARK  241  A    between atoms: _589  and  _590
REMARK  242  A    between atoms: _589  and  _592
REMARK  243  A    between atoms: _592  and  _593
REMARK  244  A    between atoms: _596  and  _598
REMARK  245  A    between atoms: _598  and  _599
REMARK  246  A    between atoms: _601  and  _603
REMARK  247  A    between atoms: _603  and  _604
REMARK  248  A    between atoms: _607  and  _609
REMARK  249  A    between atoms: _609  and  _610
REMARK  250  A    between atoms: _609  and  _612
REMARK  251  A    between atoms: _612  and  _613
REMARK  252  A    between atoms: _618  and  _619
REMARK                            x       y       z     vdW  Elec       q    Type
REMARK                         _______ _______ _______ _____ _____    ______ ____
ROOT
ATOM      1  O   HOH     1      31.882  26.463  27.221  0.00  0.00    +0.000 OA
ENDROOT
TORSDOF 0
REMARK  Name = ../refined-set-2016/2qrh/2qrh_pocket.pdb
REMARK  252 active torsions:
REMARK  status: ('A' for Active; 'I' for Inactive)
REMARK    1  A    between atoms: _1  and  _3
REMARK    2  A    between atoms: _3  and  _4
REMARK    3  A    between atoms: _3  and  _6
REMARK    4  A    between atoms: _6  and  _7
REMARK    5  A    between atoms: _12  and  _13
REMARK    6  A    between atoms: _15  and  _17
REMARK    7  A    between atoms: _17  and  _18
REMARK    8  A    between atoms: _17  and  _20
REMARK    9  A    between atoms: _20  and  _21
REMARK   10  A    between atoms: _21  and  _22
REMARK   11  A    between atoms: _25  and  _27
REMARK   12  A    between atoms: _27  and  _28
REMARK   13  A    between atoms: _30  and  _32
REMARK   14  A    between atoms: _32  and  _33
REMARK   15  A    between atoms: _32  and  _35
REMARK   16  A    between atoms: _35  and  _36
REMARK   17  A    between atoms: _41  and  _43
REMARK   18  A    between atoms: _43  and  _44
REMARK   19  A    between atoms: _46  and  _48
REMARK   20  A    between atoms: _48  and  _49
REMARK   21  A    between atoms: _51  and  _53
REMARK   22  A    between atoms: _53  and  _54
REMARK   23  A    between atoms: _53  and  _56
REMARK   24  A    between atoms: _56  and  _57
REMARK   25  A    between atoms: _60  and  _62
REMARK   26  A    between atoms: _62  and  _63
REMARK   27  A    between atoms: _65  and  _67
REMARK   28  A    between atoms: _67  and  _68
REMARK   29  A    between atoms: _67  and  _70
REMARK   30  A    between atoms: _70  and  _71
REMARK   31  A    between atoms: _71  and  _72
REMARK   32  A    between atoms: _72  and  _73
REMARK   33  A    between atoms: _82  and  _84
REMARK   34  A    between atoms: _84  and  _85
REMARK   35  A    between atoms: _84  and  _87
REMARK   36  A    between atoms: _87  and  _88
REMARK   37  A    between atoms: _91  and  _93
REMARK   38  A    between atoms: _93  and  _94
REMARK   39  A    between atoms: _97  and  _99
REMARK   40  A    between atoms: _99  and  _100
REMARK   41  A    between atoms: _99  and  _102
REMARK   42  A    between atoms: _102  and  _103
REMARK   43  A    between atoms: _109  and  _111
REMARK   44  A    between atoms: _111  and  _112
REMARK   45  A    between atoms: _111  and  _114
REMARK   46  A    between atoms: _114  and  _115
REMARK   47  A    between atoms: _120  and  _121
REMARK   48  A    between atoms: _124  and  _125
REMARK   49  A    between atoms: _130  and  _132
REMARK   50  A    between atoms: _132  and  _133
REMARK   51  A    between atoms: _132  and  _135
REMARK   52  A    between atoms: _135  and  _136
REMARK   53  A    between atoms: _141  and  _143
REMARK   54  A    between atoms: _143  and  _144
REMARK   55  A    between atoms: _143  and  _146
REMARK   56  A    between atoms: _146  and  _147
REMARK   57  A    between atoms: _150  and  _152
REMARK   58  A    between atoms: _152  and  _153
REMARK   59  A    between atoms: _152  and  _155
REMARK   60  A    between atoms: _155  and  _156
REMARK   61  A    between atoms: _161  and  _163
REMARK   62  A    between atoms: _163  and  _164
REMARK   63  A    between atoms: _163  and  _166
REMARK   64  A    between atoms: _166  and  _167
REMARK   65  A    between atoms: _173  and  _175
REMARK   66  A    between atoms: _175  and  _176
REMARK   67  A    between atoms: _175  and  _178
REMARK   68  A    between atoms: _178  and  _179
REMARK   69  A    between atoms: _185  and  _187
REMARK   70  A    between atoms: _187  and  _188
REMARK   71  A    between atoms: _187  and  _190
REMARK   72  A    between atoms: _190  and  _191
REMARK   73  A    between atoms: _191  and  _192
REMARK   74  A    between atoms: _195  and  _197
REMARK   75  A    between atoms: _197  and  _198
REMARK   76  A    between atoms: _197  and  _200
REMARK   77  A    between atoms: _200  and  _201
REMARK   78  A    between atoms: _201  and  _202
REMARK   79  A    between atoms: _202  and  _203
REMARK   80  A    between atoms: _212  and  _214
REMARK   81  A    between atoms: _214  and  _215
REMARK   82  A    between atoms: _214  and  _217
REMARK   83  A    between atoms: _217  and  _218
REMARK   84  A    between atoms: _223  and  _225
REMARK   85  A    between atoms: _225  and  _226
REMARK   86  A    between atoms: _225  and  _228
REMARK   87  A    between atoms: _228  and  _229
REMARK   88  A    between atoms: _232  and  _234
REMARK   89  A    between atoms: _234  and  _235
REMARK   90  A    between atoms: _234  and  _237
REMARK   91  A    between atoms: _237  and  _238
REMARK   92  A    between atoms: _241  and  _243
REMARK   93  A    between atoms: _243  and  _244
REMARK   94  A    between atoms: _243  and  _246
REMARK   95  A    between atoms: _246  and  _247
REMARK   96  A    between atoms: _252  and  _254
REMARK   97  A    between atoms: _254  and  _255
REMARK   98  A    between atoms: _254  and  _257
REMARK   99  A    between atoms: _257  and  _258
REMARK  100  A    between atoms: _261  and  _263
REMARK  101  A    between atoms: _263  and  _264
REMARK  102  A    between atoms: _263  and  _266
REMARK  103  A    between atoms: _266  and  _267
REMARK  104  A    between atoms: _272  and  _274
REMARK  105  A    between atoms: _274  and  _275
REMARK  106  A    between atoms: _274  and  _277
REMARK  107  A    between atoms: _277  and  _278
REMARK  108  A    between atoms: _283  and  _285
REMARK  109  A    between atoms: _285  and  _286
REMARK  110  A    between atoms: _285  and  _288
REMARK  111  A    between atoms: _288  and  _289
REMARK  112  A    between atoms: _292  and  _294
REMARK  113  A    between atoms: _294  and  _295
REMARK  114  A    between atoms: _294  and  _297
REMARK  115  A    between atoms: _300  and  _302
REMARK  116  A    between atoms: _302  and  _303
REMARK  117  A    between atoms: _302  and  _305
REMARK  118  A    between atoms: _305  and  _306
REMARK  119  A    between atoms: _309  and  _311
REMARK  120  A    between atoms: _311  and  _312
REMARK  121  A    between atoms: _311  and  _314
REMARK  122  A    between atoms: _314  and  _315
REMARK  123  A    between atoms: _315  and  _316
REMARK  124  A    between atoms: _319  and  _321
REMARK  125  A    between atoms: _321  and  _322
REMARK  126  A    between atoms: _325  and  _327
REMARK  127  A    between atoms: _327  and  _328
REMARK  128  A    between atoms: _327  and  _330
REMARK  129  A    between atoms: _330  and  _331
REMARK  130  A    between atoms: _334  and  _336
REMARK  131  A    between atoms: _336  and  _337
REMARK  132  A    between atoms: _336  and  _339
REMARK  133  A    between atoms: _339  and  _340
REMARK  134  A    between atoms: _340  and  _341
REMARK  135  A    between atoms: _344  and  _346
REMARK  136  A    between atoms: _346  and  _347
REMARK  137  A    between atoms: _346  and  _349
REMARK  138  A    between atoms: _349  and  _350
REMARK  139  A    between atoms: _355  and  _357
REMARK  140  A    between atoms: _357  and  _358
REMARK  141  A    between atoms: _360  and  _362
REMARK  142  A    between atoms: _362  and  _363
REMARK  143  A    between atoms: _362  and  _365
REMARK  144  A    between atoms: _368  and  _370
REMARK  145  A    between atoms: _370  and  _371
REMARK  146  A    between atoms: _374  and  _376
REMARK  147  A    between atoms: _376  and  _377
REMARK  148  A    between atoms: _376  and  _379
REMARK  149  A    between atoms: _379  and  _380
REMARK  150  A    between atoms: _385  and  _387
REMARK  151  A    between atoms: _387  and  _388
REMARK  152  A    between atoms: _387  and  _390
REMARK  153  A    between atoms: _390  and  _391
REMARK  154  A    between atoms: _391  and  _392
REMARK  155  A    between atoms: _392  and  _393
REMARK  156  A    between atoms: _393  and  _394
REMARK  157  A    between atoms: _398  and  _400
REMARK  158  A    between atoms: _400  and  _401
REMARK  159  A    between atoms: _400  and  _403
REMARK  160  A    between atoms: _403  and  _404
REMARK  161  A    between atoms: _407  and  _409
REMARK  162  A    between atoms: _409  and  _410
REMARK  163  A    between atoms: _409  and  _412
REMARK  164  A    between atoms: _412  and  _413
REMARK  165  A    between atoms: _418  and  _420
REMARK  166  A    between atoms: _420  and  _421
REMARK  167  A    between atoms: _423  and  _425
REMARK  168  A    between atoms: _425  and  _426
REMARK  169  A    between atoms: _425  and  _428
REMARK  170  A    between atoms: _428  and  _429
REMARK  171  A    between atoms: _429  and  _430
REMARK  172  A    between atoms: _430  and  _431
REMARK  173  A    between atoms: _431  and  _432
REMARK  174  A    between atoms: _436  and  _438
REMARK  175  A    between atoms: _438  and  _439
REMARK  176  A    between atoms: _438  and  _441
REMARK  177  A    between atoms: _441  and  _442
REMARK  178  A    between atoms: _442  and  _443
REMARK  179  A    between atoms: _443  and  _444
REMARK  180  A    between atoms: _453  and  _455
REMARK  181  A    between atoms: _455  and  _456
REMARK  182  A    between atoms: _455  and  _458
REMARK  183  A    between atoms: _458  and  _459
REMARK  184  A    between atoms: _464  and  _465
REMARK  185  A    between atoms: _467  and  _469
REMARK  186  A    between atoms: _469  and  _470
REMARK  187  A    between atoms: _469  and  _472
REMARK  188  A    between atoms: _472  and  _473
REMARK  189  A    between atoms: _473  and  _474
REMARK  190  A    between atoms: _474  and  _475
REMARK  191  A    between atoms: _475  and  _476
REMARK  192  A    between atoms: _480  and  _482
REMARK  193  A    between atoms: _482  and  _483
REMARK  194  A    between atoms: _482  and  _485
REMARK  195  A    between atoms: _485  and  _486
REMARK  196  A    between atoms: _488  and  _490
REMARK  197  A    between atoms: _490  and  _491
REMARK  198  A    between atoms: _490  and  _493
REMARK  199  A    between atoms: _493  and  _494
REMARK  200  A    between atoms: _497  and  _499
REMARK  201  A    between atoms: _499  and  _500
REMARK  202  A    between atoms: _499  and  _502
REMARK  203  A    between atoms: _502  and  _503
REMARK  204  A    between atoms: _503  and  _504
REMARK  205  A    between atoms: _507  and  _509
REMARK  206  A    between atoms: _509  and  _510
REMARK  207  A    between atoms: _513  and  _515
REMARK  208  A    between atoms: _515  and  _516
REMARK  209  A    between atoms: _515  and  _518
REMARK  210  A    between atoms: _518  and  _519
REMARK  211  A    between atoms: _521  and  _523
REMARK  212  A    between atoms: _523  and  _524
REMARK  213  A    between atoms: _526  and  _528
REMARK  214  A    between atoms: _528  and  _529
REMARK  215  A    between atoms: _528  and  _531
REMARK  216  A    between atoms: _531  and  _532
REMARK  217  A    between atoms: _535  and  _537
REMARK  218  A    between atoms: _537  and  _538
REMARK  219  A    between atoms: _540  and  _542
REMARK  220  A    between atoms: _542  and  _543
REMARK  221  A    between atoms: _542  and  _545
REMARK  222  A    between atoms: _545  and  _546
REMARK  223  A    between atoms: _551  and  _553
REMARK  224  A    between atoms: _553  and  _554
REMARK  225  A    between atoms: _553  and  _556
REMARK  226  A    between atoms: _556  and  _557
REMARK  227  A    between atoms: _557  and  _558
REMARK  228  A    between atoms: _565  and  _566
REMARK  229  A    between atoms: _566  and  _582
REMARK  230  A    between atoms: _567  and  _569
REMARK  231  A    between atoms: _569  and  _570
REMARK  232  A    between atoms: _570  and  _571
REMARK  233  A    between atoms: _575  and  _577
REMARK  234  A    between atoms: _577  and  _578
REMARK  235  A    between atoms: _577  and  _585
REMARK  236  A    between atoms: _578  and  _579
REMARK  237  A    between atoms: _579  and  _580
REMARK  238  A    between atoms: _580  and  _581
REMARK  239  A    between atoms: _581  and  _582
REMARK  240  A    between atoms: _587  and  _589
REMARK  241  A    between atoms: _589  and  _590
REMARK  242  A    between atoms: _589  and  _592
REMARK  243  A    between atoms: _592  and  _593
REMARK  244  A    between atoms: _596  and  _598
REMARK  245  A    between atoms: _598  and  _599
REMARK  246  A    between atoms: _601  and  _603
REMARK  247  A    between atoms: _603  and  _604
REMARK  248  A    between atoms: _607  and  _609
REMARK  249  A    between atoms: _609  and  _610
REMARK  250  A    between atoms: _609  and  _612
REMARK  251  A    between atoms: _612  and  _613
REMARK  252  A    between atoms: _618  and  _619
REMARK                            x       y       z     vdW  Elec       q    Type
REMARK                         _______ _______ _______ _____ _____    ______ ____
ROOT
ATOM      1  O   HOH     1      40.995  24.101  32.700  0.00  0.00    +0.000 OA
ENDROOT
TORSDOF 0
REMARK  Name = ../refined-set-2016/2qrh/2qrh_pocket.pdb
REMARK  252 active torsions:
REMARK  status: ('A' for Active; 'I' for Inactive)
REMARK    1  A    between atoms: _1  and  _3
REMARK    2  A    between atoms: _3  and  _4
REMARK    3  A    between atoms: _3  and  _6
REMARK    4  A    between atoms: _6  and  _7
REMARK    5  A    between atoms: _12  and  _13
REMARK    6  A    between atoms: _15  and  _17
REMARK    7  A    between atoms: _17  and  _18
REMARK    8  A    between atoms: _17  and  _20
REMARK    9  A    between atoms: _20  and  _21
REMARK   10  A    between atoms: _21  and  _22
REMARK   11  A    between atoms: _25  and  _27
REMARK   12  A    between atoms: _27  and  _28
REMARK   13  A    between atoms: _30  and  _32
REMARK   14  A    between atoms: _32  and  _33
REMARK   15  A    between atoms: _32  and  _35
REMARK   16  A    between atoms: _35  and  _36
REMARK   17  A    between atoms: _41  and  _43
REMARK   18  A    between atoms: _43  and  _44
REMARK   19  A    between atoms: _46  and  _48
REMARK   20  A    between atoms: _48  and  _49
REMARK   21  A    between atoms: _51  and  _53
REMARK   22  A    between atoms: _53  and  _54
REMARK   23  A    between atoms: _53  and  _56
REMARK   24  A    between atoms: _56  and  _57
REMARK   25  A    between atoms: _60  and  _62
REMARK   26  A    between atoms: _62  and  _63
REMARK   27  A    between atoms: _65  and  _67
REMARK   28  A    between atoms: _67  and  _68
REMARK   29  A    between atoms: _67  and  _70
REMARK   30  A    between atoms: _70  and  _71
REMARK   31  A    between atoms: _71  and  _72
REMARK   32  A    between atoms: _72  and  _73
REMARK   33  A    between atoms: _82  and  _84
REMARK   34  A    between atoms: _84  and  _85
REMARK   35  A    between atoms: _84  and  _87
REMARK   36  A    between atoms: _87  and  _88
REMARK   37  A    between atoms: _91  and  _93
REMARK   38  A    between atoms: _93  and  _94
REMARK   39  A    between atoms: _97  and  _99
REMARK   40  A    between atoms: _99  and  _100
REMARK   41  A    between atoms: _99  and  _102
REMARK   42  A    between atoms: _102  and  _103
REMARK   43  A    between atoms: _109  and  _111
REMARK   44  A    between atoms: _111  and  _112
REMARK   45  A    between atoms: _111  and  _114
REMARK   46  A    between atoms: _114  and  _115
REMARK   47  A    between atoms: _120  and  _121
REMARK   48  A    between atoms: _124  and  _125
REMARK   49  A    between atoms: _130  and  _132
REMARK   50  A    between atoms: _132  and  _133
REMARK   51  A    between atoms: _132  and  _135
REMARK   52  A    between atoms: _135  and  _136
REMARK   53  A    between atoms: _141  and  _143
REMARK   54  A    between atoms: _143  and  _144
REMARK   55  A    between atoms: _143  and  _146
REMARK   56  A    between atoms: _146  and  _147
REMARK   57  A    between atoms: _150  and  _152
REMARK   58  A    between atoms: _152  and  _153
REMARK   59  A    between atoms: _152  and  _155
REMARK   60  A    between atoms: _155  and  _156
REMARK   61  A    between atoms: _161  and  _163
REMARK   62  A    between atoms: _163  and  _164
REMARK   63  A    between atoms: _163  and  _166
REMARK   64  A    between atoms: _166  and  _167
REMARK   65  A    between atoms: _173  and  _175
REMARK   66  A    between atoms: _175  and  _176
REMARK   67  A    between atoms: _175  and  _178
REMARK   68  A    between atoms: _178  and  _179
REMARK   69  A    between atoms: _185  and  _187
REMARK   70  A    between atoms: _187  and  _188
REMARK   71  A    between atoms: _187  and  _190
REMARK   72  A    between atoms: _190  and  _191
REMARK   73  A    between atoms: _191  and  _192
REMARK   74  A    between atoms: _195  and  _197
REMARK   75  A    between atoms: _197  and  _198
REMARK   76  A    between atoms: _197  and  _200
REMARK   77  A    between atoms: _200  and  _201
REMARK   78  A    between atoms: _201  and  _202
REMARK   79  A    between atoms: _202  and  _203
REMARK   80  A    between atoms: _212  and  _214
REMARK   81  A    between atoms: _214  and  _215
REMARK   82  A    between atoms: _214  and  _217
REMARK   83  A    between atoms: _217  and  _218
REMARK   84  A    between atoms: _223  and  _225
REMARK   85  A    between atoms: _225  and  _226
REMARK   86  A    between atoms: _225  and  _228
REMARK   87  A    between atoms: _228  and  _229
REMARK   88  A    between atoms: _232  and  _234
REMARK   89  A    between atoms: _234  and  _235
REMARK   90  A    between atoms: _234  and  _237
REMARK   91  A    between atoms: _237  and  _238
REMARK   92  A    between atoms: _241  and  _243
REMARK   93  A    between atoms: _243  and  _244
REMARK   94  A    between atoms: _243  and  _246
REMARK   95  A    between atoms: _246  and  _247
REMARK   96  A    between atoms: _252  and  _254
REMARK   97  A    between atoms: _254  and  _255
REMARK   98  A    between atoms: _254  and  _257
REMARK   99  A    between atoms: _257  and  _258
REMARK  100  A    between atoms: _261  and  _263
REMARK  101  A    between atoms: _263  and  _264
REMARK  102  A    between atoms: _263  and  _266
REMARK  103  A    between atoms: _266  and  _267
REMARK  104  A    between atoms: _272  and  _274
REMARK  105  A    between atoms: _274  and  _275
REMARK  106  A    between atoms: _274  and  _277
REMARK  107  A    between atoms: _277  and  _278
REMARK  108  A    between atoms: _283  and  _285
REMARK  109  A    between atoms: _285  and  _286
REMARK  110  A    between atoms: _285  and  _288
REMARK  111  A    between atoms: _288  and  _289
REMARK  112  A    between atoms: _292  and  _294
REMARK  113  A    between atoms: _294  and  _295
REMARK  114  A    between atoms: _294  and  _297
REMARK  115  A    between atoms: _300  and  _302
REMARK  116  A    between atoms: _302  and  _303
REMARK  117  A    between atoms: _302  and  _305
REMARK  118  A    between atoms: _305  and  _306
REMARK  119  A    between atoms: _309  and  _311
REMARK  120  A    between atoms: _311  and  _312
REMARK  121  A    between atoms: _311  and  _314
REMARK  122  A    between atoms: _314  and  _315
REMARK  123  A    between atoms: _315  and  _316
REMARK  124  A    between atoms: _319  and  _321
REMARK  125  A    between atoms: _321  and  _322
REMARK  126  A    between atoms: _325  and  _327
REMARK  127  A    between atoms: _327  and  _328
REMARK  128  A    between atoms: _327  and  _330
REMARK  129  A    between atoms: _330  and  _331
REMARK  130  A    between atoms: _334  and  _336
REMARK  131  A    between atoms: _336  and  _337
REMARK  132  A    between atoms: _336  and  _339
REMARK  133  A    between atoms: _339  and  _340
REMARK  134  A    between atoms: _340  and  _341
REMARK  135  A    between atoms: _344  and  _346
REMARK  136  A    between atoms: _346  and  _347
REMARK  137  A    between atoms: _346  and  _349
REMARK  138  A    between atoms: _349  and  _350
REMARK  139  A    between atoms: _355  and  _357
REMARK  140  A    between atoms: _357  and  _358
REMARK  141  A    between atoms: _360  and  _362
REMARK  142  A    between atoms: _362  and  _363
REMARK  143  A    between atoms: _362  and  _365
REMARK  144  A    between atoms: _368  and  _370
REMARK  145  A    between atoms: _370  and  _371
REMARK  146  A    between atoms: _374  and  _376
REMARK  147  A    between atoms: _376  and  _377
REMARK  148  A    between atoms: _376  and  _379
REMARK  149  A    between atoms: _379  and  _380
REMARK  150  A    between atoms: _385  and  _387
REMARK  151  A    between atoms: _387  and  _388
REMARK  152  A    between atoms: _387  and  _390
REMARK  153  A    between atoms: _390  and  _391
REMARK  154  A    between atoms: _391  and  _392
REMARK  155  A    between atoms: _392  and  _393
REMARK  156  A    between atoms: _393  and  _394
REMARK  157  A    between atoms: _398  and  _400
REMARK  158  A    between atoms: _400  and  _401
REMARK  159  A    between atoms: _400  and  _403
REMARK  160  A    between atoms: _403  and  _404
REMARK  161  A    between atoms: _407  and  _409
REMARK  162  A    between atoms: _409  and  _410
REMARK  163  A    between atoms: _409  and  _412
REMARK  164  A    between atoms: _412  and  _413
REMARK  165  A    between atoms: _418  and  _420
REMARK  166  A    between atoms: _420  and  _421
REMARK  167  A    between atoms: _423  and  _425
REMARK  168  A    between atoms: _425  and  _426
REMARK  169  A    between atoms: _425  and  _428
REMARK  170  A    between atoms: _428  and  _429
REMARK  171  A    between atoms: _429  and  _430
REMARK  172  A    between atoms: _430  and  _431
REMARK  173  A    between atoms: _431  and  _432
REMARK  174  A    between atoms: _436  and  _438
REMARK  175  A    between atoms: _438  and  _439
REMARK  176  A    between atoms: _438  and  _441
REMARK  177  A    between atoms: _441  and  _442
REMARK  178  A    between atoms: _442  and  _443
REMARK  179  A    between atoms: _443  and  _444
REMARK  180  A    between atoms: _453  and  _455
REMARK  181  A    between atoms: _455  and  _456
REMARK  182  A    between atoms: _455  and  _458
REMARK  183  A    between atoms: _458  and  _459
REMARK  184  A    between atoms: _464  and  _465
REMARK  185  A    between atoms: _467  and  _469
REMARK  186  A    between atoms: _469  and  _470
REMARK  187  A    between atoms: _469  and  _472
REMARK  188  A    between atoms: _472  and  _473
REMARK  189  A    between atoms: _473  and  _474
REMARK  190  A    between atoms: _474  and  _475
REMARK  191  A    between atoms: _475  and  _476
REMARK  192  A    between atoms: _480  and  _482
REMARK  193  A    between atoms: _482  and  _483
REMARK  194  A    between atoms: _482  and  _485
REMARK  195  A    between atoms: _485  and  _486
REMARK  196  A    between atoms: _488  and  _490
REMARK  197  A    between atoms: _490  and  _491
REMARK  198  A    between atoms: _490  and  _493
REMARK  199  A    between atoms: _493  and  _494
REMARK  200  A    between atoms: _497  and  _499
REMARK  201  A    between atoms: _499  and  _500
REMARK  202  A    between atoms: _499  and  _502
REMARK  203  A    between atoms: _502  and  _503
REMARK  204  A    between atoms: _503  and  _504
REMARK  205  A    between atoms: _507  and  _509
REMARK  206  A    between atoms: _509  and  _510
REMARK  207  A    between atoms: _513  and  _515
REMARK  208  A    between atoms: _515  and  _516
REMARK  209  A    between atoms: _515  and  _518
REMARK  210  A    between atoms: _518  and  _519
REMARK  211  A    between atoms: _521  and  _523
REMARK  212  A    between atoms: _523  and  _524
REMARK  213  A    between atoms: _526  and  _528
REMARK  214  A    between atoms: _528  and  _529
REMARK  215  A    between atoms: _528  and  _531
REMARK  216  A    between atoms: _531  and  _532
REMARK  217  A    between atoms: _535  and  _537
REMARK  218  A    between atoms: _537  and  _538
REMARK  219  A    between atoms: _540  and  _542
REMARK  220  A    between atoms: _542  and  _543
REMARK  221  A    between atoms: _542  and  _545
REMARK  222  A    between atoms: _545  and  _546
REMARK  223  A    between atoms: _551  and  _553
REMARK  224  A    between atoms: _553  and  _554
REMARK  225  A    between atoms: _553  and  _556
REMARK  226  A    between atoms: _556  and  _557
REMARK  227  A    between atoms: _557  and  _558
REMARK  228  A    between atoms: _565  and  _566
REMARK  229  A    between atoms: _566  and  _582
REMARK  230  A    between atoms: _567  and  _569
REMARK  231  A    between atoms: _569  and  _570
REMARK  232  A    between atoms: _570  and  _571
REMARK  233  A    between atoms: _575  and  _577
REMARK  234  A    between atoms: _577  and  _578
REMARK  235  A    between atoms: _577  and  _585
REMARK  236  A    between atoms: _578  and  _579
REMARK  237  A    between atoms: _579  and  _580
REMARK  238  A    between atoms: _580  and  _581
REMARK  239  A    between atoms: _581  and  _582
REMARK  240  A    between atoms: _587  and  _589
REMARK  241  A    between atoms: _589  and  _590
REMARK  242  A    between atoms: _589  and  _592
REMARK  243  A    between atoms: _592  and  _593
REMARK  244  A    between atoms: _596  and  _598
REMARK  245  A    between atoms: _598  and  _599
REMARK  246  A    between atoms: _601  and  _603
REMARK  247  A    between atoms: _603  and  _604
REMARK  248  A    between atoms: _607  and  _609
REMARK  249  A    between atoms: _609  and  _610
REMARK  250  A    between atoms: _609  and  _612
REMARK  251  A    between atoms: _612  and  _613
REMARK  252  A    between atoms: _618  and  _619
REMARK                            x       y       z     vdW  Elec       q    Type
REMARK                         _______ _______ _______ _____ _____    ______ ____
ROOT
ATOM      1  O   HOH     1      36.419  27.444  36.625  0.00  0.00    +0.000 OA
ENDROOT
TORSDOF 0
REMARK  Name = ../refined-set-2016/2qrh/2qrh_pocket.pdb
REMARK  252 active torsions:
REMARK  status: ('A' for Active; 'I' for Inactive)
REMARK    1  A    between atoms: _1  and  _3
REMARK    2  A    between atoms: _3  and  _4
REMARK    3  A    between atoms: _3  and  _6
REMARK    4  A    between atoms: _6  and  _7
REMARK    5  A    between atoms: _12  and  _13
REMARK    6  A    between atoms: _15  and  _17
REMARK    7  A    between atoms: _17  and  _18
REMARK    8  A    between atoms: _17  and  _20
REMARK    9  A    between atoms: _20  and  _21
REMARK   10  A    between atoms: _21  and  _22
REMARK   11  A    between atoms: _25  and  _27
REMARK   12  A    between atoms: _27  and  _28
REMARK   13  A    between atoms: _30  and  _32
REMARK   14  A    between atoms: _32  and  _33
REMARK   15  A    between atoms: _32  and  _35
REMARK   16  A    between atoms: _35  and  _36
REMARK   17  A    between atoms: _41  and  _43
REMARK   18  A    between atoms: _43  and  _44
REMARK   19  A    between atoms: _46  and  _48
REMARK   20  A    between atoms: _48  and  _49
REMARK   21  A    between atoms: _51  and  _53
REMARK   22  A    between atoms: _53  and  _54
REMARK   23  A    between atoms: _53  and  _56
REMARK   24  A    between atoms: _56  and  _57
REMARK   25  A    between atoms: _60  and  _62
REMARK   26  A    between atoms: _62  and  _63
REMARK   27  A    between atoms: _65  and  _67
REMARK   28  A    between atoms: _67  and  _68
REMARK   29  A    between atoms: _67  and  _70
REMARK   30  A    between atoms: _70  and  _71
REMARK   31  A    between atoms: _71  and  _72
REMARK   32  A    between atoms: _72  and  _73
REMARK   33  A    between atoms: _82  and  _84
REMARK   34  A    between atoms: _84  and  _85
REMARK   35  A    between atoms: _84  and  _87
REMARK   36  A    between atoms: _87  and  _88
REMARK   37  A    between atoms: _91  and  _93
REMARK   38  A    between atoms: _93  and  _94
REMARK   39  A    between atoms: _97  and  _99
REMARK   40  A    between atoms: _99  and  _100
REMARK   41  A    between atoms: _99  and  _102
REMARK   42  A    between atoms: _102  and  _103
REMARK   43  A    between atoms: _109  and  _111
REMARK   44  A    between atoms: _111  and  _112
REMARK   45  A    between atoms: _111  and  _114
REMARK   46  A    between atoms: _114  and  _115
REMARK   47  A    between atoms: _120  and  _121
REMARK   48  A    between atoms: _124  and  _125
REMARK   49  A    between atoms: _130  and  _132
REMARK   50  A    between atoms: _132  and  _133
REMARK   51  A    between atoms: _132  and  _135
REMARK   52  A    between atoms: _135  and  _136
REMARK   53  A    between atoms: _141  and  _143
REMARK   54  A    between atoms: _143  and  _144
REMARK   55  A    between atoms: _143  and  _146
REMARK   56  A    between atoms: _146  and  _147
REMARK   57  A    between atoms: _150  and  _152
REMARK   58  A    between atoms: _152  and  _153
REMARK   59  A    between atoms: _152  and  _155
REMARK   60  A    between atoms: _155  and  _156
REMARK   61  A    between atoms: _161  and  _163
REMARK   62  A    between atoms: _163  and  _164
REMARK   63  A    between atoms: _163  and  _166
REMARK   64  A    between atoms: _166  and  _167
REMARK   65  A    between atoms: _173  and  _175
REMARK   66  A    between atoms: _175  and  _176
REMARK   67  A    between atoms: _175  and  _178
REMARK   68  A    between atoms: _178  and  _179
REMARK   69  A    between atoms: _185  and  _187
REMARK   70  A    between atoms: _187  and  _188
REMARK   71  A    between atoms: _187  and  _190
REMARK   72  A    between atoms: _190  and  _191
REMARK   73  A    between atoms: _191  and  _192
REMARK   74  A    between atoms: _195  and  _197
REMARK   75  A    between atoms: _197  and  _198
REMARK   76  A    between atoms: _197  and  _200
REMARK   77  A    between atoms: _200  and  _201
REMARK   78  A    between atoms: _201  and  _202
REMARK   79  A    between atoms: _202  and  _203
REMARK   80  A    between atoms: _212  and  _214
REMARK   81  A    between atoms: _214  and  _215
REMARK   82  A    between atoms: _214  and  _217
REMARK   83  A    between atoms: _217  and  _218
REMARK   84  A    between atoms: _223  and  _225
REMARK   85  A    between atoms: _225  and  _226
REMARK   86  A    between atoms: _225  and  _228
REMARK   87  A    between atoms: _228  and  _229
REMARK   88  A    between atoms: _232  and  _234
REMARK   89  A    between atoms: _234  and  _235
REMARK   90  A    between atoms: _234  and  _237
REMARK   91  A    between atoms: _237  and  _238
REMARK   92  A    between atoms: _241  and  _243
REMARK   93  A    between atoms: _243  and  _244
REMARK   94  A    between atoms: _243  and  _246
REMARK   95  A    between atoms: _246  and  _247
REMARK   96  A    between atoms: _252  and  _254
REMARK   97  A    between atoms: _254  and  _255
REMARK   98  A    between atoms: _254  and  _257
REMARK   99  A    between atoms: _257  and  _258
REMARK  100  A    between atoms: _261  and  _263
REMARK  101  A    between atoms: _263  and  _264
REMARK  102  A    between atoms: _263  and  _266
REMARK  103  A    between atoms: _266  and  _267
REMARK  104  A    between atoms: _272  and  _274
REMARK  105  A    between atoms: _274  and  _275
REMARK  106  A    between atoms: _274  and  _277
REMARK  107  A    between atoms: _277  and  _278
REMARK  108  A    between atoms: _283  and  _285
REMARK  109  A    between atoms: _285  and  _286
REMARK  110  A    between atoms: _285  and  _288
REMARK  111  A    between atoms: _288  and  _289
REMARK  112  A    between atoms: _292  and  _294
REMARK  113  A    between atoms: _294  and  _295
REMARK  114  A    between atoms: _294  and  _297
REMARK  115  A    between atoms: _300  and  _302
REMARK  116  A    between atoms: _302  and  _303
REMARK  117  A    between atoms: _302  and  _305
REMARK  118  A    between atoms: _305  and  _306
REMARK  119  A    between atoms: _309  and  _311
REMARK  120  A    between atoms: _311  and  _312
REMARK  121  A    between atoms: _311  and  _314
REMARK  122  A    between atoms: _314  and  _315
REMARK  123  A    between atoms: _315  and  _316
REMARK  124  A    between atoms: _319  and  _321
REMARK  125  A    between atoms: _321  and  _322
REMARK  126  A    between atoms: _325  and  _327
REMARK  127  A    between atoms: _327  and  _328
REMARK  128  A    between atoms: _327  and  _330
REMARK  129  A    between atoms: _330  and  _331
REMARK  130  A    between atoms: _334  and  _336
REMARK  131  A    between atoms: _336  and  _337
REMARK  132  A    between atoms: _336  and  _339
REMARK  133  A    between atoms: _339  and  _340
REMARK  134  A    between atoms: _340  and  _341
REMARK  135  A    between atoms: _344  and  _346
REMARK  136  A    between atoms: _346  and  _347
REMARK  137  A    between atoms: _346  and  _349
REMARK  138  A    between atoms: _349  and  _350
REMARK  139  A    between atoms: _355  and  _357
REMARK  140  A    between atoms: _357  and  _358
REMARK  141  A    between atoms: _360  and  _362
REMARK  142  A    between atoms: _362  and  _363
REMARK  143  A    between atoms: _362  and  _365
REMARK  144  A    between atoms: _368  and  _370
REMARK  145  A    between atoms: _370  and  _371
REMARK  146  A    between atoms: _374  and  _376
REMARK  147  A    between atoms: _376  and  _377
REMARK  148  A    between atoms: _376  and  _379
REMARK  149  A    between atoms: _379  and  _380
REMARK  150  A    between atoms: _385  and  _387
REMARK  151  A    between atoms: _387  and  _388
REMARK  152  A    between atoms: _387  and  _390
REMARK  153  A    between atoms: _390  and  _391
REMARK  154  A    between atoms: _391  and  _392
REMARK  155  A    between atoms: _392  and  _393
REMARK  156  A    between atoms: _393  and  _394
REMARK  157  A    between atoms: _398  and  _400
REMARK  158  A    between atoms: _400  and  _401
REMARK  159  A    between atoms: _400  and  _403
REMARK  160  A    between atoms: _403  and  _404
REMARK  161  A    between atoms: _407  and  _409
REMARK  162  A    between atoms: _409  and  _410
REMARK  163  A    between atoms: _409  and  _412
REMARK  164  A    between atoms: _412  and  _413
REMARK  165  A    between atoms: _418  and  _420
REMARK  166  A    between atoms: _420  and  _421
REMARK  167  A    between atoms: _423  and  _425
REMARK  168  A    between atoms: _425  and  _426
REMARK  169  A    between atoms: _425  and  _428
REMARK  170  A    between atoms: _428  and  _429
REMARK  171  A    between atoms: _429  and  _430
REMARK  172  A    between atoms: _430  and  _431
REMARK  173  A    between atoms: _431  and  _432
REMARK  174  A    between atoms: _436  and  _438
REMARK  175  A    between atoms: _438  and  _439
REMARK  176  A    between atoms: _438  and  _441
REMARK  177  A    between atoms: _441  and  _442
REMARK  178  A    between atoms: _442  and  _443
REMARK  179  A    between atoms: _443  and  _444
REMARK  180  A    between atoms: _453  and  _455
REMARK  181  A    between atoms: _455  and  _456
REMARK  182  A    between atoms: _455  and  _458
REMARK  183  A    between atoms: _458  and  _459
REMARK  184  A    between atoms: _464  and  _465
REMARK  185  A    between atoms: _467  and  _469
REMARK  186  A    between atoms: _469  and  _470
REMARK  187  A    between atoms: _469  and  _472
REMARK  188  A    between atoms: _472  and  _473
REMARK  189  A    between atoms: _473  and  _474
REMARK  190  A    between atoms: _474  and  _475
REMARK  191  A    between atoms: _475  and  _476
REMARK  192  A    between atoms: _480  and  _482
REMARK  193  A    between atoms: _482  and  _483
REMARK  194  A    between atoms: _482  and  _485
REMARK  195  A    between atoms: _485  and  _486
REMARK  196  A    between atoms: _488  and  _490
REMARK  197  A    between atoms: _490  and  _491
REMARK  198  A    between atoms: _490  and  _493
REMARK  199  A    between atoms: _493  and  _494
REMARK  200  A    between atoms: _497  and  _499
REMARK  201  A    between atoms: _499  and  _500
REMARK  202  A    between atoms: _499  and  _502
REMARK  203  A    between atoms: _502  and  _503
REMARK  204  A    between atoms: _503  and  _504
REMARK  205  A    between atoms: _507  and  _509
REMARK  206  A    between atoms: _509  and  _510
REMARK  207  A    between atoms: _513  and  _515
REMARK  208  A    between atoms: _515  and  _516
REMARK  209  A    between atoms: _515  and  _518
REMARK  210  A    between atoms: _518  and  _519
REMARK  211  A    between atoms: _521  and  _523
REMARK  212  A    between atoms: _523  and  _524
REMARK  213  A    between atoms: _526  and  _528
REMARK  214  A    between atoms: _528  and  _529
REMARK  215  A    between atoms: _528  and  _531
REMARK  216  A    between atoms: _531  and  _532
REMARK  217  A    between atoms: _535  and  _537
REMARK  218  A    between atoms: _537  and  _538
REMARK  219  A    between atoms: _540  and  _542
REMARK  220  A    between atoms: _542  and  _543
REMARK  221  A    between atoms: _542  and  _545
REMARK  222  A    between atoms: _545  and  _546
REMARK  223  A    between atoms: _551  and  _553
REMARK  224  A    between atoms: _553  and  _554
REMARK  225  A    between atoms: _553  and  _556
REMARK  226  A    between atoms: _556  and  _557
REMARK  227  A    between atoms: _557  and  _558
REMARK  228  A    between atoms: _565  and  _566
REMARK  229  A    between atoms: _566  and  _582
REMARK  230  A    between atoms: _567  and  _569
REMARK  231  A    between atoms: _569  and  _570
REMARK  232  A    between atoms: _570  and  _571
REMARK  233  A    between atoms: _575  and  _577
REMARK  234  A    between atoms: _577  and  _578
REMARK  235  A    between atoms: _577  and  _585
REMARK  236  A    between atoms: _578  and  _579
REMARK  237  A    between atoms: _579  and  _580
REMARK  238  A    between atoms: _580  and  _581
REMARK  239  A    between atoms: _581  and  _582
REMARK  240  A    between atoms: _587  and  _589
REMARK  241  A    between atoms: _589  and  _590
REMARK  242  A    between atoms: _589  and  _592
REMARK  243  A    between atoms: _592  and  _593
REMARK  244  A    between atoms: _596  and  _598
REMARK  245  A    between atoms: _598  and  _599
REMARK  246  A    between atoms: _601  and  _603
REMARK  247  A    between atoms: _603  and  _604
REMARK  248  A    between atoms: _607  and  _609
REMARK  249  A    between atoms: _609  and  _610
REMARK  250  A    between atoms: _609  and  _612
REMARK  251  A    between atoms: _612  and  _613
REMARK  252  A    between atoms: _618  and  _619
REMARK                            x       y       z     vdW  Elec       q    Type
REMARK                         _______ _______ _______ _____ _____    ______ ____
ROOT
ATOM      1  O   HOH     1      31.553  25.361  31.468  0.00  0.00    +0.000 OA
ENDROOT
TORSDOF 0
REMARK  Name = ../refined-set-2016/2qrh/2qrh_pocket.pdb
REMARK  252 active torsions:
REMARK  status: ('A' for Active; 'I' for Inactive)
REMARK    1  A    between atoms: _1  and  _3
REMARK    2  A    between atoms: _3  and  _4
REMARK    3  A    between atoms: _3  and  _6
REMARK    4  A    between atoms: _6  and  _7
REMARK    5  A    between atoms: _12  and  _13
REMARK    6  A    between atoms: _15  and  _17
REMARK    7  A    between atoms: _17  and  _18
REMARK    8  A    between atoms: _17  and  _20
REMARK    9  A    between atoms: _20  and  _21
REMARK   10  A    between atoms: _21  and  _22
REMARK   11  A    between atoms: _25  and  _27
REMARK   12  A    between atoms: _27  and  _28
REMARK   13  A    between atoms: _30  and  _32
REMARK   14  A    between atoms: _32  and  _33
REMARK   15  A    between atoms: _32  and  _35
REMARK   16  A    between atoms: _35  and  _36
REMARK   17  A    between atoms: _41  and  _43
REMARK   18  A    between atoms: _43  and  _44
REMARK   19  A    between atoms: _46  and  _48
REMARK   20  A    between atoms: _48  and  _49
REMARK   21  A    between atoms: _51  and  _53
REMARK   22  A    between atoms: _53  and  _54
REMARK   23  A    between atoms: _53  and  _56
REMARK   24  A    between atoms: _56  and  _57
REMARK   25  A    between atoms: _60  and  _62
REMARK   26  A    between atoms: _62  and  _63
REMARK   27  A    between atoms: _65  and  _67
REMARK   28  A    between atoms: _67  and  _68
REMARK   29  A    between atoms: _67  and  _70
REMARK   30  A    between atoms: _70  and  _71
REMARK   31  A    between atoms: _71  and  _72
REMARK   32  A    between atoms: _72  and  _73
REMARK   33  A    between atoms: _82  and  _84
REMARK   34  A    between atoms: _84  and  _85
REMARK   35  A    between atoms: _84  and  _87
REMARK   36  A    between atoms: _87  and  _88
REMARK   37  A    between atoms: _91  and  _93
REMARK   38  A    between atoms: _93  and  _94
REMARK   39  A    between atoms: _97  and  _99
REMARK   40  A    between atoms: _99  and  _100
REMARK   41  A    between atoms: _99  and  _102
REMARK   42  A    between atoms: _102  and  _103
REMARK   43  A    between atoms: _109  and  _111
REMARK   44  A    between atoms: _111  and  _112
REMARK   45  A    between atoms: _111  and  _114
REMARK   46  A    between atoms: _114  and  _115
REMARK   47  A    between atoms: _120  and  _121
REMARK   48  A    between atoms: _124  and  _125
REMARK   49  A    between atoms: _130  and  _132
REMARK   50  A    between atoms: _132  and  _133
REMARK   51  A    between atoms: _132  and  _135
REMARK   52  A    between atoms: _135  and  _136
REMARK   53  A    between atoms: _141  and  _143
REMARK   54  A    between atoms: _143  and  _144
REMARK   55  A    between atoms: _143  and  _146
REMARK   56  A    between atoms: _146  and  _147
REMARK   57  A    between atoms: _150  and  _152
REMARK   58  A    between atoms: _152  and  _153
REMARK   59  A    between atoms: _152  and  _155
REMARK   60  A    between atoms: _155  and  _156
REMARK   61  A    between atoms: _161  and  _163
REMARK   62  A    between atoms: _163  and  _164
REMARK   63  A    between atoms: _163  and  _166
REMARK   64  A    between atoms: _166  and  _167
REMARK   65  A    between atoms: _173  and  _175
REMARK   66  A    between atoms: _175  and  _176
REMARK   67  A    between atoms: _175  and  _178
REMARK   68  A    between atoms: _178  and  _179
REMARK   69  A    between atoms: _185  and  _187
REMARK   70  A    between atoms: _187  and  _188
REMARK   71  A    between atoms: _187  and  _190
REMARK   72  A    between atoms: _190  and  _191
REMARK   73  A    between atoms: _191  and  _192
REMARK   74  A    between atoms: _195  and  _197
REMARK   75  A    between atoms: _197  and  _198
REMARK   76  A    between atoms: _197  and  _200
REMARK   77  A    between atoms: _200  and  _201
REMARK   78  A    between atoms: _201  and  _202
REMARK   79  A    between atoms: _202  and  _203
REMARK   80  A    between atoms: _212  and  _214
REMARK   81  A    between atoms: _214  and  _215
REMARK   82  A    between atoms: _214  and  _217
REMARK   83  A    between atoms: _217  and  _218
REMARK   84  A    between atoms: _223  and  _225
REMARK   85  A    between atoms: _225  and  _226
REMARK   86  A    between atoms: _225  and  _228
REMARK   87  A    between atoms: _228  and  _229
REMARK   88  A    between atoms: _232  and  _234
REMARK   89  A    between atoms: _234  and  _235
REMARK   90  A    between atoms: _234  and  _237
REMARK   91  A    between atoms: _237  and  _238
REMARK   92  A    between atoms: _241  and  _243
REMARK   93  A    between atoms: _243  and  _244
REMARK   94  A    between atoms: _243  and  _246
REMARK   95  A    between atoms: _246  and  _247
REMARK   96  A    between atoms: _252  and  _254
REMARK   97  A    between atoms: _254  and  _255
REMARK   98  A    between atoms: _254  and  _257
REMARK   99  A    between atoms: _257  and  _258
REMARK  100  A    between atoms: _261  and  _263
REMARK  101  A    between atoms: _263  and  _264
REMARK  102  A    between atoms: _263  and  _266
REMARK  103  A    between atoms: _266  and  _267
REMARK  104  A    between atoms: _272  and  _274
REMARK  105  A    between atoms: _274  and  _275
REMARK  106  A    between atoms: _274  and  _277
REMARK  107  A    between atoms: _277  and  _278
REMARK  108  A    between atoms: _283  and  _285
REMARK  109  A    between atoms: _285  and  _286
REMARK  110  A    between atoms: _285  and  _288
REMARK  111  A    between atoms: _288  and  _289
REMARK  112  A    between atoms: _292  and  _294
REMARK  113  A    between atoms: _294  and  _295
REMARK  114  A    between atoms: _294  and  _297
REMARK  115  A    between atoms: _300  and  _302
REMARK  116  A    between atoms: _302  and  _303
REMARK  117  A    between atoms: _302  and  _305
REMARK  118  A    between atoms: _305  and  _306
REMARK  119  A    between atoms: _309  and  _311
REMARK  120  A    between atoms: _311  and  _312
REMARK  121  A    between atoms: _311  and  _314
REMARK  122  A    between atoms: _314  and  _315
REMARK  123  A    between atoms: _315  and  _316
REMARK  124  A    between atoms: _319  and  _321
REMARK  125  A    between atoms: _321  and  _322
REMARK  126  A    between atoms: _325  and  _327
REMARK  127  A    between atoms: _327  and  _328
REMARK  128  A    between atoms: _327  and  _330
REMARK  129  A    between atoms: _330  and  _331
REMARK  130  A    between atoms: _334  and  _336
REMARK  131  A    between atoms: _336  and  _337
REMARK  132  A    between atoms: _336  and  _339
REMARK  133  A    between atoms: _339  and  _340
REMARK  134  A    between atoms: _340  and  _341
REMARK  135  A    between atoms: _344  and  _346
REMARK  136  A    between atoms: _346  and  _347
REMARK  137  A    between atoms: _346  and  _349
REMARK  138  A    between atoms: _349  and  _350
REMARK  139  A    between atoms: _355  and  _357
REMARK  140  A    between atoms: _357  and  _358
REMARK  141  A    between atoms: _360  and  _362
REMARK  142  A    between atoms: _362  and  _363
REMARK  143  A    between atoms: _362  and  _365
REMARK  144  A    between atoms: _368  and  _370
REMARK  145  A    between atoms: _370  and  _371
REMARK  146  A    between atoms: _374  and  _376
REMARK  147  A    between atoms: _376  and  _377
REMARK  148  A    between atoms: _376  and  _379
REMARK  149  A    between atoms: _379  and  _380
REMARK  150  A    between atoms: _385  and  _387
REMARK  151  A    between atoms: _387  and  _388
REMARK  152  A    between atoms: _387  and  _390
REMARK  153  A    between atoms: _390  and  _391
REMARK  154  A    between atoms: _391  and  _392
REMARK  155  A    between atoms: _392  and  _393
REMARK  156  A    between atoms: _393  and  _394
REMARK  157  A    between atoms: _398  and  _400
REMARK  158  A    between atoms: _400  and  _401
REMARK  159  A    between atoms: _400  and  _403
REMARK  160  A    between atoms: _403  and  _404
REMARK  161  A    between atoms: _407  and  _409
REMARK  162  A    between atoms: _409  and  _410
REMARK  163  A    between atoms: _409  and  _412
REMARK  164  A    between atoms: _412  and  _413
REMARK  165  A    between atoms: _418  and  _420
REMARK  166  A    between atoms: _420  and  _421
REMARK  167  A    between atoms: _423  and  _425
REMARK  168  A    between atoms: _425  and  _426
REMARK  169  A    between atoms: _425  and  _428
REMARK  170  A    between atoms: _428  and  _429
REMARK  171  A    between atoms: _429  and  _430
REMARK  172  A    between atoms: _430  and  _431
REMARK  173  A    between atoms: _431  and  _432
REMARK  174  A    between atoms: _436  and  _438
REMARK  175  A    between atoms: _438  and  _439
REMARK  176  A    between atoms: _438  and  _441
REMARK  177  A    between atoms: _441  and  _442
REMARK  178  A    between atoms: _442  and  _443
REMARK  179  A    between atoms: _443  and  _444
REMARK  180  A    between atoms: _453  and  _455
REMARK  181  A    between atoms: _455  and  _456
REMARK  182  A    between atoms: _455  and  _458
REMARK  183  A    between atoms: _458  and  _459
REMARK  184  A    between atoms: _464  and  _465
REMARK  185  A    between atoms: _467  and  _469
REMARK  186  A    between atoms: _469  and  _470
REMARK  187  A    between atoms: _469  and  _472
REMARK  188  A    between atoms: _472  and  _473
REMARK  189  A    between atoms: _473  and  _474
REMARK  190  A    between atoms: _474  and  _475
REMARK  191  A    between atoms: _475  and  _476
REMARK  192  A    between atoms: _480  and  _482
REMARK  193  A    between atoms: _482  and  _483
REMARK  194  A    between atoms: _482  and  _485
REMARK  195  A    between atoms: _485  and  _486
REMARK  196  A    between atoms: _488  and  _490
REMARK  197  A    between atoms: _490  and  _491
REMARK  198  A    between atoms: _490  and  _493
REMARK  199  A    between atoms: _493  and  _494
REMARK  200  A    between atoms: _497  and  _499
REMARK  201  A    between atoms: _499  and  _500
REMARK  202  A    between atoms: _499  and  _502
REMARK  203  A    between atoms: _502  and  _503
REMARK  204  A    between atoms: _503  and  _504
REMARK  205  A    between atoms: _507  and  _509
REMARK  206  A    between atoms: _509  and  _510
REMARK  207  A    between atoms: _513  and  _515
REMARK  208  A    between atoms: _515  and  _516
REMARK  209  A    between atoms: _515  and  _518
REMARK  210  A    between atoms: _518  and  _519
REMARK  211  A    between atoms: _521  and  _523
REMARK  212  A    between atoms: _523  and  _524
REMARK  213  A    between atoms: _526  and  _528
REMARK  214  A    between atoms: _528  and  _529
REMARK  215  A    between atoms: _528  and  _531
REMARK  216  A    between atoms: _531  and  _532
REMARK  217  A    between atoms: _535  and  _537
REMARK  218  A    between atoms: _537  and  _538
REMARK  219  A    between atoms: _540  and  _542
REMARK  220  A    between atoms: _542  and  _543
REMARK  221  A    between atoms: _542  and  _545
REMARK  222  A    between atoms: _545  and  _546
REMARK  223  A    between atoms: _551  and  _553
REMARK  224  A    between atoms: _553  and  _554
REMARK  225  A    between atoms: _553  and  _556
REMARK  226  A    between atoms: _556  and  _557
REMARK  227  A    between atoms: _557  and  _558
REMARK  228  A    between atoms: _565  and  _566
REMARK  229  A    between atoms: _566  and  _582
REMARK  230  A    between atoms: _567  and  _569
REMARK  231  A    between atoms: _569  and  _570
REMARK  232  A    between atoms: _570  and  _571
REMARK  233  A    between atoms: _575  and  _577
REMARK  234  A    between atoms: _577  and  _578
REMARK  235  A    between atoms: _577  and  _585
REMARK  236  A    between atoms: _578  and  _579
REMARK  237  A    between atoms: _579  and  _580
REMARK  238  A    between atoms: _580  and  _581
REMARK  239  A    between atoms: _581  and  _582
REMARK  240  A    between atoms: _587  and  _589
REMARK  241  A    between atoms: _589  and  _590
REMARK  242  A    between atoms: _589  and  _592
REMARK  243  A    between atoms: _592  and  _593
REMARK  244  A    between atoms: _596  and  _598
REMARK  245  A    between atoms: _598  and  _599
REMARK  246  A    between atoms: _601  and  _603
REMARK  247  A    between atoms: _603  and  _604
REMARK  248  A    between atoms: _607  and  _609
REMARK  249  A    between atoms: _609  and  _610
REMARK  250  A    between atoms: _609  and  _612
REMARK  251  A    between atoms: _612  and  _613
REMARK  252  A    between atoms: _618  and  _619
REMARK                            x       y       z     vdW  Elec       q    Type
REMARK                         _______ _______ _______ _____ _____    ______ ____
ROOT
ATOM      1  O   HOH     1      40.671  26.391  34.271  0.00  0.00    +0.000 OA
ENDROOT
TORSDOF 0
REMARK  Name = ../refined-set-2016/2qrh/2qrh_pocket.pdb
REMARK  252 active torsions:
REMARK  status: ('A' for Active; 'I' for Inactive)
REMARK    1  A    between atoms: _1  and  _3
REMARK    2  A    between atoms: _3  and  _4
REMARK    3  A    between atoms: _3  and  _6
REMARK    4  A    between atoms: _6  and  _7
REMARK    5  A    between atoms: _12  and  _13
REMARK    6  A    between atoms: _15  and  _17
REMARK    7  A    between atoms: _17  and  _18
REMARK    8  A    between atoms: _17  and  _20
REMARK    9  A    between atoms: _20  and  _21
REMARK   10  A    between atoms: _21  and  _22
REMARK   11  A    between atoms: _25  and  _27
REMARK   12  A    between atoms: _27  and  _28
REMARK   13  A    between atoms: _30  and  _32
REMARK   14  A    between atoms: _32  and  _33
REMARK   15  A    between atoms: _32  and  _35
REMARK   16  A    between atoms: _35  and  _36
REMARK   17  A    between atoms: _41  and  _43
REMARK   18  A    between atoms: _43  and  _44
REMARK   19  A    between atoms: _46  and  _48
REMARK   20  A    between atoms: _48  and  _49
REMARK   21  A    between atoms: _51  and  _53
REMARK   22  A    between atoms: _53  and  _54
REMARK   23  A    between atoms: _53  and  _56
REMARK   24  A    between atoms: _56  and  _57
REMARK   25  A    between atoms: _60  and  _62
REMARK   26  A    between atoms: _62  and  _63
REMARK   27  A    between atoms: _65  and  _67
REMARK   28  A    between atoms: _67  and  _68
REMARK   29  A    between atoms: _67  and  _70
REMARK   30  A    between atoms: _70  and  _71
REMARK   31  A    between atoms: _71  and  _72
REMARK   32  A    between atoms: _72  and  _73
REMARK   33  A    between atoms: _82  and  _84
REMARK   34  A    between atoms: _84  and  _85
REMARK   35  A    between atoms: _84  and  _87
REMARK   36  A    between atoms: _87  and  _88
REMARK   37  A    between atoms: _91  and  _93
REMARK   38  A    between atoms: _93  and  _94
REMARK   39  A    between atoms: _97  and  _99
REMARK   40  A    between atoms: _99  and  _100
REMARK   41  A    between atoms: _99  and  _102
REMARK   42  A    between atoms: _102  and  _103
REMARK   43  A    between atoms: _109  and  _111
REMARK   44  A    between atoms: _111  and  _112
REMARK   45  A    between atoms: _111  and  _114
REMARK   46  A    between atoms: _114  and  _115
REMARK   47  A    between atoms: _120  and  _121
REMARK   48  A    between atoms: _124  and  _125
REMARK   49  A    between atoms: _130  and  _132
REMARK   50  A    between atoms: _132  and  _133
REMARK   51  A    between atoms: _132  and  _135
REMARK   52  A    between atoms: _135  and  _136
REMARK   53  A    between atoms: _141  and  _143
REMARK   54  A    between atoms: _143  and  _144
REMARK   55  A    between atoms: _143  and  _146
REMARK   56  A    between atoms: _146  and  _147
REMARK   57  A    between atoms: _150  and  _152
REMARK   58  A    between atoms: _152  and  _153
REMARK   59  A    between atoms: _152  and  _155
REMARK   60  A    between atoms: _155  and  _156
REMARK   61  A    between atoms: _161  and  _163
REMARK   62  A    between atoms: _163  and  _164
REMARK   63  A    between atoms: _163  and  _166
REMARK   64  A    between atoms: _166  and  _167
REMARK   65  A    between atoms: _173  and  _175
REMARK   66  A    between atoms: _175  and  _176
REMARK   67  A    between atoms: _175  and  _178
REMARK   68  A    between atoms: _178  and  _179
REMARK   69  A    between atoms: _185  and  _187
REMARK   70  A    between atoms: _187  and  _188
REMARK   71  A    between atoms: _187  and  _190
REMARK   72  A    between atoms: _190  and  _191
REMARK   73  A    between atoms: _191  and  _192
REMARK   74  A    between atoms: _195  and  _197
REMARK   75  A    between atoms: _197  and  _198
REMARK   76  A    between atoms: _197  and  _200
REMARK   77  A    between atoms: _200  and  _201
REMARK   78  A    between atoms: _201  and  _202
REMARK   79  A    between atoms: _202  and  _203
REMARK   80  A    between atoms: _212  and  _214
REMARK   81  A    between atoms: _214  and  _215
REMARK   82  A    between atoms: _214  and  _217
REMARK   83  A    between atoms: _217  and  _218
REMARK   84  A    between atoms: _223  and  _225
REMARK   85  A    between atoms: _225  and  _226
REMARK   86  A    between atoms: _225  and  _228
REMARK   87  A    between atoms: _228  and  _229
REMARK   88  A    between atoms: _232  and  _234
REMARK   89  A    between atoms: _234  and  _235
REMARK   90  A    between atoms: _234  and  _237
REMARK   91  A    between atoms: _237  and  _238
REMARK   92  A    between atoms: _241  and  _243
REMARK   93  A    between atoms: _243  and  _244
REMARK   94  A    between atoms: _243  and  _246
REMARK   95  A    between atoms: _246  and  _247
REMARK   96  A    between atoms: _252  and  _254
REMARK   97  A    between atoms: _254  and  _255
REMARK   98  A    between atoms: _254  and  _257
REMARK   99  A    between atoms: _257  and  _258
REMARK  100  A    between atoms: _261  and  _263
REMARK  101  A    between atoms: _263  and  _264
REMARK  102  A    between atoms: _263  and  _266
REMARK  103  A    between atoms: _266  and  _267
REMARK  104  A    between atoms: _272  and  _274
REMARK  105  A    between atoms: _274  and  _275
REMARK  106  A    between atoms: _274  and  _277
REMARK  107  A    between atoms: _277  and  _278
REMARK  108  A    between atoms: _283  and  _285
REMARK  109  A    between atoms: _285  and  _286
REMARK  110  A    between atoms: _285  and  _288
REMARK  111  A    between atoms: _288  and  _289
REMARK  112  A    between atoms: _292  and  _294
REMARK  113  A    between atoms: _294  and  _295
REMARK  114  A    between atoms: _294  and  _297
REMARK  115  A    between atoms: _300  and  _302
REMARK  116  A    between atoms: _302  and  _303
REMARK  117  A    between atoms: _302  and  _305
REMARK  118  A    between atoms: _305  and  _306
REMARK  119  A    between atoms: _309  and  _311
REMARK  120  A    between atoms: _311  and  _312
REMARK  121  A    between atoms: _311  and  _314
REMARK  122  A    between atoms: _314  and  _315
REMARK  123  A    between atoms: _315  and  _316
REMARK  124  A    between atoms: _319  and  _321
REMARK  125  A    between atoms: _321  and  _322
REMARK  126  A    between atoms: _325  and  _327
REMARK  127  A    between atoms: _327  and  _328
REMARK  128  A    between atoms: _327  and  _330
REMARK  129  A    between atoms: _330  and  _331
REMARK  130  A    between atoms: _334  and  _336
REMARK  131  A    between atoms: _336  and  _337
REMARK  132  A    between atoms: _336  and  _339
REMARK  133  A    between atoms: _339  and  _340
REMARK  134  A    between atoms: _340  and  _341
REMARK  135  A    between atoms: _344  and  _346
REMARK  136  A    between atoms: _346  and  _347
REMARK  137  A    between atoms: _346  and  _349
REMARK  138  A    between atoms: _349  and  _350
REMARK  139  A    between atoms: _355  and  _357
REMARK  140  A    between atoms: _357  and  _358
REMARK  141  A    between atoms: _360  and  _362
REMARK  142  A    between atoms: _362  and  _363
REMARK  143  A    between atoms: _362  and  _365
REMARK  144  A    between atoms: _368  and  _370
REMARK  145  A    between atoms: _370  and  _371
REMARK  146  A    between atoms: _374  and  _376
REMARK  147  A    between atoms: _376  and  _377
REMARK  148  A    between atoms: _376  and  _379
REMARK  149  A    between atoms: _379  and  _380
REMARK  150  A    between atoms: _385  and  _387
REMARK  151  A    between atoms: _387  and  _388
REMARK  152  A    between atoms: _387  and  _390
REMARK  153  A    between atoms: _390  and  _391
REMARK  154  A    between atoms: _391  and  _392
REMARK  155  A    between atoms: _392  and  _393
REMARK  156  A    between atoms: _393  and  _394
REMARK  157  A    between atoms: _398  and  _400
REMARK  158  A    between atoms: _400  and  _401
REMARK  159  A    between atoms: _400  and  _403
REMARK  160  A    between atoms: _403  and  _404
REMARK  161  A    between atoms: _407  and  _409
REMARK  162  A    between atoms: _409  and  _410
REMARK  163  A    between atoms: _409  and  _412
REMARK  164  A    between atoms: _412  and  _413
REMARK  165  A    between atoms: _418  and  _420
REMARK  166  A    between atoms: _420  and  _421
REMARK  167  A    between atoms: _423  and  _425
REMARK  168  A    between atoms: _425  and  _426
REMARK  169  A    between atoms: _425  and  _428
REMARK  170  A    between atoms: _428  and  _429
REMARK  171  A    between atoms: _429  and  _430
REMARK  172  A    between atoms: _430  and  _431
REMARK  173  A    between atoms: _431  and  _432
REMARK  174  A    between atoms: _436  and  _438
REMARK  175  A    between atoms: _438  and  _439
REMARK  176  A    between atoms: _438  and  _441
REMARK  177  A    between atoms: _441  and  _442
REMARK  178  A    between atoms: _442  and  _443
REMARK  179  A    between atoms: _443  and  _444
REMARK  180  A    between atoms: _453  and  _455
REMARK  181  A    between atoms: _455  and  _456
REMARK  182  A    between atoms: _455  and  _458
REMARK  183  A    between atoms: _458  and  _459
REMARK  184  A    between atoms: _464  and  _465
REMARK  185  A    between atoms: _467  and  _469
REMARK  186  A    between atoms: _469  and  _470
REMARK  187  A    between atoms: _469  and  _472
REMARK  188  A    between atoms: _472  and  _473
REMARK  189  A    between atoms: _473  and  _474
REMARK  190  A    between atoms: _474  and  _475
REMARK  191  A    between atoms: _475  and  _476
REMARK  192  A    between atoms: _480  and  _482
REMARK  193  A    between atoms: _482  and  _483
REMARK  194  A    between atoms: _482  and  _485
REMARK  195  A    between atoms: _485  and  _486
REMARK  196  A    between atoms: _488  and  _490
REMARK  197  A    between atoms: _490  and  _491
REMARK  198  A    between atoms: _490  and  _493
REMARK  199  A    between atoms: _493  and  _494
REMARK  200  A    between atoms: _497  and  _499
REMARK  201  A    between atoms: _499  and  _500
REMARK  202  A    between atoms: _499  and  _502
REMARK  203  A    between atoms: _502  and  _503
REMARK  204  A    between atoms: _503  and  _504
REMARK  205  A    between atoms: _507  and  _509
REMARK  206  A    between atoms: _509  and  _510
REMARK  207  A    between atoms: _513  and  _515
REMARK  208  A    between atoms: _515  and  _516
REMARK  209  A    between atoms: _515  and  _518
REMARK  210  A    between atoms: _518  and  _519
REMARK  211  A    between atoms: _521  and  _523
REMARK  212  A    between atoms: _523  and  _524
REMARK  213  A    between atoms: _526  and  _528
REMARK  214  A    between atoms: _528  and  _529
REMARK  215  A    between atoms: _528  and  _531
REMARK  216  A    between atoms: _531  and  _532
REMARK  217  A    between atoms: _535  and  _537
REMARK  218  A    between atoms: _537  and  _538
REMARK  219  A    between atoms: _540  and  _542
REMARK  220  A    between atoms: _542  and  _543
REMARK  221  A    between atoms: _542  and  _545
REMARK  222  A    between atoms: _545  and  _546
REMARK  223  A    between atoms: _551  and  _553
REMARK  224  A    between atoms: _553  and  _554
REMARK  225  A    between atoms: _553  and  _556
REMARK  226  A    between atoms: _556  and  _557
REMARK  227  A    between atoms: _557  and  _558
REMARK  228  A    between atoms: _565  and  _566
REMARK  229  A    between atoms: _566  and  _582
REMARK  230  A    between atoms: _567  and  _569
REMARK  231  A    between atoms: _569  and  _570
REMARK  232  A    between atoms: _570  and  _571
REMARK  233  A    between atoms: _575  and  _577
REMARK  234  A    between atoms: _577  and  _578
REMARK  235  A    between atoms: _577  and  _585
REMARK  236  A    between atoms: _578  and  _579
REMARK  237  A    between atoms: _579  and  _580
REMARK  238  A    between atoms: _580  and  _581
REMARK  239  A    between atoms: _581  and  _582
REMARK  240  A    between atoms: _587  and  _589
REMARK  241  A    between atoms: _589  and  _590
REMARK  242  A    between atoms: _589  and  _592
REMARK  243  A    between atoms: _592  and  _593
REMARK  244  A    between atoms: _596  and  _598
REMARK  245  A    between atoms: _598  and  _599
REMARK  246  A    between atoms: _601  and  _603
REMARK  247  A    between atoms: _603  and  _604
REMARK  248  A    between atoms: _607  and  _609
REMARK  249  A    between atoms: _609  and  _610
REMARK  250  A    between atoms: _609  and  _612
REMARK  251  A    between atoms: _612  and  _613
REMARK  252  A    between atoms: _618  and  _619
REMARK                            x       y       z     vdW  Elec       q    Type
REMARK                         _______ _______ _______ _____ _____    ______ ____
ROOT
ATOM      1  O   HOH     1      34.023  32.853  31.520  0.00  0.00    +0.000 OA
ENDROOT
TORSDOF 0
