REMARK  Name = ../refined-set-2016/4z1e/4z1e_pocket.pdb
REMARK  154 active torsions:
REMARK  status: ('A' for Active; 'I' for Inactive)
REMARK    1  A    between atoms: _1  and  _3
REMARK    2  A    between atoms: _3  and  _4
REMARK    3  A    between atoms: _3  and  _6
REMARK    4  A    between atoms: _6  and  _7
REMARK    5  A    between atoms: _17  and  _19
REMARK    6  A    between atoms: _19  and  _20
REMARK    7  A    between atoms: _19  and  _22
REMARK    8  A    between atoms: _22  and  _23
REMARK    9  A    between atoms: _28  and  _29
REMARK   10  A    between atoms: _31  and  _33
REMARK   11  A    between atoms: _33  and  _34
REMARK   12  A    between atoms: _33  and  _36
REMARK   13  A    between atoms: _36  and  _37
REMARK   14  A    between atoms: _40  and  _41
REMARK   15  A    between atoms: _46  and  _48
REMARK   16  A    between atoms: _48  and  _49
REMARK   17  A    between atoms: _48  and  _51
REMARK   18  A    between atoms: _51  and  _52
REMARK   19  A    between atoms: _55  and  _57
REMARK   20  A    between atoms: _57  and  _58
REMARK   21  A    between atoms: _57  and  _60
REMARK   22  A    between atoms: _60  and  _61
REMARK   23  A    between atoms: _66  and  _68
REMARK   24  A    between atoms: _68  and  _69
REMARK   25  A    between atoms: _72  and  _74
REMARK   26  A    between atoms: _74  and  _75
REMARK   27  A    between atoms: _74  and  _77
REMARK   28  A    between atoms: _77  and  _78
REMARK   29  A    between atoms: _83  and  _85
REMARK   30  A    between atoms: _85  and  _86
REMARK   31  A    between atoms: _85  and  _88
REMARK   32  A    between atoms: _88  and  _89
REMARK   33  A    between atoms: _89  and  _90
REMARK   34  A    between atoms: _93  and  _95
REMARK   35  A    between atoms: _95  and  _96
REMARK   36  A    between atoms: _95  and  _98
REMARK   37  A    between atoms: _98  and  _99
REMARK   38  A    between atoms: _102  and  _104
REMARK   39  A    between atoms: _104  and  _105
REMARK   40  A    between atoms: _104  and  _107
REMARK   41  A    between atoms: _107  and  _108
REMARK   42  A    between atoms: _108  and  _109
REMARK   43  A    between atoms: _114  and  _116
REMARK   44  A    between atoms: _116  and  _117
REMARK   45  A    between atoms: _116  and  _119
REMARK   46  A    between atoms: _119  and  _120
REMARK   47  A    between atoms: _126  and  _128
REMARK   48  A    between atoms: _139  and  _142
REMARK   49  A    between atoms: _142  and  _143
REMARK   50  A    between atoms: _151  and  _152
REMARK   51  A    between atoms: _160  and  _162
REMARK   52  A    between atoms: _162  and  _163
REMARK   53  A    between atoms: _162  and  _165
REMARK   54  A    between atoms: _165  and  _166
REMARK   55  A    between atoms: _166  and  _167
REMARK   56  A    between atoms: _170  and  _172
REMARK   57  A    between atoms: _172  and  _173
REMARK   58  A    between atoms: _172  and  _175
REMARK   59  A    between atoms: _175  and  _176
REMARK   60  A    between atoms: _181  and  _183
REMARK   61  A    between atoms: _183  and  _184
REMARK   62  A    between atoms: _183  and  _186
REMARK   63  A    between atoms: _186  and  _187
REMARK   64  A    between atoms: _187  and  _188
REMARK   65  A    between atoms: _191  and  _193
REMARK   66  A    between atoms: _193  and  _194
REMARK   67  A    between atoms: _193  and  _196
REMARK   68  A    between atoms: _196  and  _197
REMARK   69  A    between atoms: _200  and  _202
REMARK   70  A    between atoms: _202  and  _203
REMARK   71  A    between atoms: _202  and  _205
REMARK   72  A    between atoms: _205  and  _206
REMARK   73  A    between atoms: _207  and  ZN_427
REMARK   74  A    between atoms: _211  and  _213
REMARK   75  A    between atoms: _213  and  _214
REMARK   76  A    between atoms: _213  and  _216
REMARK   77  A    between atoms: _216  and  _217
REMARK   78  A    between atoms: _220  and  _222
REMARK   79  A    between atoms: _222  and  _223
REMARK   80  A    between atoms: _222  and  _225
REMARK   81  A    between atoms: _228  and  _230
REMARK   82  A    between atoms: _230  and  _231
REMARK   83  A    between atoms: _230  and  _233
REMARK   84  A    between atoms: _233  and  _234
REMARK   85  A    between atoms: _239  and  _241
REMARK   86  A    between atoms: _241  and  _242
REMARK   87  A    between atoms: _241  and  _244
REMARK   88  A    between atoms: _244  and  _245
REMARK   89  A    between atoms: _251  and  _253
REMARK   90  A    between atoms: _253  and  _254
REMARK   91  A    between atoms: _256  and  _258
REMARK   92  A    between atoms: _258  and  _259
REMARK   93  A    between atoms: _258  and  _261
REMARK   94  A    between atoms: _264  and  _266
REMARK   95  A    between atoms: _266  and  _267
REMARK   96  A    between atoms: _266  and  _269
REMARK   97  A    between atoms: _269  and  _270
REMARK   98  A    between atoms: _273  and  _275
REMARK   99  A    between atoms: _275  and  _276
REMARK  100  A    between atoms: _279  and  _281
REMARK  101  A    between atoms: _281  and  _282
REMARK  102  A    between atoms: _281  and  _284
REMARK  103  A    between atoms: _287  and  _289
REMARK  104  A    between atoms: _289  and  _290
REMARK  105  A    between atoms: _289  and  _292
REMARK  106  A    between atoms: _292  and  _293
REMARK  107  A    between atoms: _296  and  _298
REMARK  108  A    between atoms: _298  and  _299
REMARK  109  A    between atoms: _301  and  _303
REMARK  110  A    between atoms: _303  and  _304
REMARK  111  A    between atoms: _303  and  _306
REMARK  112  A    between atoms: _306  and  _307
REMARK  113  A    between atoms: _309  and  _311
REMARK  114  A    between atoms: _311  and  _312
REMARK  115  A    between atoms: _311  and  _314
REMARK  116  A    between atoms: _314  and  _315
REMARK  117  A    between atoms: _318  and  _320
REMARK  118  A    between atoms: _320  and  _321
REMARK  119  A    between atoms: _320  and  _323
REMARK  120  A    between atoms: _323  and  _324
REMARK  121  A    between atoms: _327  and  _329
REMARK  122  A    between atoms: _329  and  _330
REMARK  123  A    between atoms: _329  and  _332
REMARK  124  A    between atoms: _332  and  _333
REMARK  125  A    between atoms: _337  and  _338
REMARK  126  A    between atoms: _344  and  _345
REMARK  127  A    between atoms: _350  and  _352
REMARK  128  A    between atoms: _352  and  _353
REMARK  129  A    between atoms: _352  and  _355
REMARK  130  A    between atoms: _355  and  _356
REMARK  131  A    between atoms: _359  and  _361
REMARK  132  A    between atoms: _361  and  _362
REMARK  133  A    between atoms: _361  and  _364
REMARK  134  A    between atoms: _364  and  _365
REMARK  135  A    between atoms: _368  and  _370
REMARK  136  A    between atoms: _370  and  _371
REMARK  137  A    between atoms: _370  and  _373
REMARK  138  A    between atoms: _375  and  _377
REMARK  139  A    between atoms: _377  and  _378
REMARK  140  A    between atoms: _377  and  _380
REMARK  141  A    between atoms: _383  and  _385
REMARK  142  A    between atoms: _385  and  _386
REMARK  143  A    between atoms: _385  and  _388
REMARK  144  A    between atoms: _388  and  _389
REMARK  145  A    between atoms: _399  and  _401
REMARK  146  A    between atoms: _401  and  _402
REMARK  147  A    between atoms: _401  and  _404
REMARK  148  A    between atoms: _404  and  _405
REMARK  149  A    between atoms: _410  and  _412
REMARK  150  A    between atoms: _412  and  _413
REMARK  151  A    between atoms: _412  and  _415
REMARK  152  A    between atoms: _415  and  _416
REMARK  153  A    between atoms: _416  and  _417
REMARK  154  A    between atoms: _417  and  _418
REMARK                            x       y       z     vdW  Elec       q    Type
REMARK                         _______ _______ _______ _____ _____    ______ ____
ROOT
ATOM      1  CG  TRP A   1      27.134   1.765  12.113  0.00  0.00    -0.002 A 
ATOM      2  CD2 TRP A   1      25.731   1.316  12.074  0.00  0.00    +0.013 A 
ATOM      3  CE3 TRP A   1      25.089   0.099  12.303  0.00  0.00    +0.001 A 
ATOM      4  CZ3 TRP A   1      23.695   0.041  12.164  0.00  0.00    +0.000 A 
ATOM      5  CH2 TRP A   1      22.959   1.168  11.783  0.00  0.00    +0.001 A 
ATOM      6  CZ2 TRP A   1      23.573   2.413  11.547  0.00  0.00    +0.017 A 
ATOM      7  CE2 TRP A   1      24.943   2.473  11.670  0.00  0.00    +0.056 A 
ATOM      8  NE1 TRP A   1      25.803   3.508  11.506  0.00  0.00    -0.352 N 
ATOM      9  HE1 TRP A   1      25.522   4.468  11.220  0.00  0.00    +0.166 HD
ATOM     10  CD1 TRP A   1      27.096   3.121  11.768  0.00  0.00    +0.068 A 
ENDROOT
BRANCH   1  11
ATOM     11  CB  TRP A   1      28.333   0.926  12.492  0.00  0.00    +0.053 C 
BRANCH  11  12
ATOM     12  CA  TRP A   1      29.003   0.188  11.343  0.00  0.00    +0.137 C 
BRANCH  12  13
ATOM     13  N   TRP A   1      29.729   1.120  10.473  0.00  0.00    -0.239 NA
ATOM     14  H   TRP A   1      29.626   2.142  10.638  0.00  0.00    +0.142 HD
ENDBRANCH  12  13
BRANCH  12  15
ATOM     15  C   TRP A   1      27.996  -0.624  10.585  0.00  0.00    +0.224 C 
ATOM     16  O   TRP A   1      27.447  -0.156   9.643  0.00  0.00    -0.287 OA
ENDBRANCH  12  15
ENDBRANCH  11  12
ENDBRANCH   1  11
TORSDOF 4
REMARK  Name = ../refined-set-2016/4z1e/4z1e_pocket.pdb
REMARK  154 active torsions:
REMARK  status: ('A' for Active; 'I' for Inactive)
REMARK    1  A    between atoms: _1  and  _3
REMARK    2  A    between atoms: _3  and  _4
REMARK    3  A    between atoms: _3  and  _6
REMARK    4  A    between atoms: _6  and  _7
REMARK    5  A    between atoms: _17  and  _19
REMARK    6  A    between atoms: _19  and  _20
REMARK    7  A    between atoms: _19  and  _22
REMARK    8  A    between atoms: _22  and  _23
REMARK    9  A    between atoms: _28  and  _29
REMARK   10  A    between atoms: _31  and  _33
REMARK   11  A    between atoms: _33  and  _34
REMARK   12  A    between atoms: _33  and  _36
REMARK   13  A    between atoms: _36  and  _37
REMARK   14  A    between atoms: _40  and  _41
REMARK   15  A    between atoms: _46  and  _48
REMARK   16  A    between atoms: _48  and  _49
REMARK   17  A    between atoms: _48  and  _51
REMARK   18  A    between atoms: _51  and  _52
REMARK   19  A    between atoms: _55  and  _57
REMARK   20  A    between atoms: _57  and  _58
REMARK   21  A    between atoms: _57  and  _60
REMARK   22  A    between atoms: _60  and  _61
REMARK   23  A    between atoms: _66  and  _68
REMARK   24  A    between atoms: _68  and  _69
REMARK   25  A    between atoms: _72  and  _74
REMARK   26  A    between atoms: _74  and  _75
REMARK   27  A    between atoms: _74  and  _77
REMARK   28  A    between atoms: _77  and  _78
REMARK   29  A    between atoms: _83  and  _85
REMARK   30  A    between atoms: _85  and  _86
REMARK   31  A    between atoms: _85  and  _88
REMARK   32  A    between atoms: _88  and  _89
REMARK   33  A    between atoms: _89  and  _90
REMARK   34  A    between atoms: _93  and  _95
REMARK   35  A    between atoms: _95  and  _96
REMARK   36  A    between atoms: _95  and  _98
REMARK   37  A    between atoms: _98  and  _99
REMARK   38  A    between atoms: _102  and  _104
REMARK   39  A    between atoms: _104  and  _105
REMARK   40  A    between atoms: _104  and  _107
REMARK   41  A    between atoms: _107  and  _108
REMARK   42  A    between atoms: _108  and  _109
REMARK   43  A    between atoms: _114  and  _116
REMARK   44  A    between atoms: _116  and  _117
REMARK   45  A    between atoms: _116  and  _119
REMARK   46  A    between atoms: _119  and  _120
REMARK   47  A    between atoms: _126  and  _128
REMARK   48  A    between atoms: _139  and  _142
REMARK   49  A    between atoms: _142  and  _143
REMARK   50  A    between atoms: _151  and  _152
REMARK   51  A    between atoms: _160  and  _162
REMARK   52  A    between atoms: _162  and  _163
REMARK   53  A    between atoms: _162  and  _165
REMARK   54  A    between atoms: _165  and  _166
REMARK   55  A    between atoms: _166  and  _167
REMARK   56  A    between atoms: _170  and  _172
REMARK   57  A    between atoms: _172  and  _173
REMARK   58  A    between atoms: _172  and  _175
REMARK   59  A    between atoms: _175  and  _176
REMARK   60  A    between atoms: _181  and  _183
REMARK   61  A    between atoms: _183  and  _184
REMARK   62  A    between atoms: _183  and  _186
REMARK   63  A    between atoms: _186  and  _187
REMARK   64  A    between atoms: _187  and  _188
REMARK   65  A    between atoms: _191  and  _193
REMARK   66  A    between atoms: _193  and  _194
REMARK   67  A    between atoms: _193  and  _196
REMARK   68  A    between atoms: _196  and  _197
REMARK   69  A    between atoms: _200  and  _202
REMARK   70  A    between atoms: _202  and  _203
REMARK   71  A    between atoms: _202  and  _205
REMARK   72  A    between atoms: _205  and  _206
REMARK   73  A    between atoms: _207  and  ZN_427
REMARK   74  A    between atoms: _211  and  _213
REMARK   75  A    between atoms: _213  and  _214
REMARK   76  A    between atoms: _213  and  _216
REMARK   77  A    between atoms: _216  and  _217
REMARK   78  A    between atoms: _220  and  _222
REMARK   79  A    between atoms: _222  and  _223
REMARK   80  A    between atoms: _222  and  _225
REMARK   81  A    between atoms: _228  and  _230
REMARK   82  A    between atoms: _230  and  _231
REMARK   83  A    between atoms: _230  and  _233
REMARK   84  A    between atoms: _233  and  _234
REMARK   85  A    between atoms: _239  and  _241
REMARK   86  A    between atoms: _241  and  _242
REMARK   87  A    between atoms: _241  and  _244
REMARK   88  A    between atoms: _244  and  _245
REMARK   89  A    between atoms: _251  and  _253
REMARK   90  A    between atoms: _253  and  _254
REMARK   91  A    between atoms: _256  and  _258
REMARK   92  A    between atoms: _258  and  _259
REMARK   93  A    between atoms: _258  and  _261
REMARK   94  A    between atoms: _264  and  _266
REMARK   95  A    between atoms: _266  and  _267
REMARK   96  A    between atoms: _266  and  _269
REMARK   97  A    between atoms: _269  and  _270
REMARK   98  A    between atoms: _273  and  _275
REMARK   99  A    between atoms: _275  and  _276
REMARK  100  A    between atoms: _279  and  _281
REMARK  101  A    between atoms: _281  and  _282
REMARK  102  A    between atoms: _281  and  _284
REMARK  103  A    between atoms: _287  and  _289
REMARK  104  A    between atoms: _289  and  _290
REMARK  105  A    between atoms: _289  and  _292
REMARK  106  A    between atoms: _292  and  _293
REMARK  107  A    between atoms: _296  and  _298
REMARK  108  A    between atoms: _298  and  _299
REMARK  109  A    between atoms: _301  and  _303
REMARK  110  A    between atoms: _303  and  _304
REMARK  111  A    between atoms: _303  and  _306
REMARK  112  A    between atoms: _306  and  _307
REMARK  113  A    between atoms: _309  and  _311
REMARK  114  A    between atoms: _311  and  _312
REMARK  115  A    between atoms: _311  and  _314
REMARK  116  A    between atoms: _314  and  _315
REMARK  117  A    between atoms: _318  and  _320
REMARK  118  A    between atoms: _320  and  _321
REMARK  119  A    between atoms: _320  and  _323
REMARK  120  A    between atoms: _323  and  _324
REMARK  121  A    between atoms: _327  and  _329
REMARK  122  A    between atoms: _329  and  _330
REMARK  123  A    between atoms: _329  and  _332
REMARK  124  A    between atoms: _332  and  _333
REMARK  125  A    between atoms: _337  and  _338
REMARK  126  A    between atoms: _344  and  _345
REMARK  127  A    between atoms: _350  and  _352
REMARK  128  A    between atoms: _352  and  _353
REMARK  129  A    between atoms: _352  and  _355
REMARK  130  A    between atoms: _355  and  _356
REMARK  131  A    between atoms: _359  and  _361
REMARK  132  A    between atoms: _361  and  _362
REMARK  133  A    between atoms: _361  and  _364
REMARK  134  A    between atoms: _364  and  _365
REMARK  135  A    between atoms: _368  and  _370
REMARK  136  A    between atoms: _370  and  _371
REMARK  137  A    between atoms: _370  and  _373
REMARK  138  A    between atoms: _375  and  _377
REMARK  139  A    between atoms: _377  and  _378
REMARK  140  A    between atoms: _377  and  _380
REMARK  141  A    between atoms: _383  and  _385
REMARK  142  A    between atoms: _385  and  _386
REMARK  143  A    between atoms: _385  and  _388
REMARK  144  A    between atoms: _388  and  _389
REMARK  145  A    between atoms: _399  and  _401
REMARK  146  A    between atoms: _401  and  _402
REMARK  147  A    between atoms: _401  and  _404
REMARK  148  A    between atoms: _404  and  _405
REMARK  149  A    between atoms: _410  and  _412
REMARK  150  A    between atoms: _412  and  _413
REMARK  151  A    between atoms: _412  and  _415
REMARK  152  A    between atoms: _415  and  _416
REMARK  153  A    between atoms: _416  and  _417
REMARK  154  A    between atoms: _417  and  _418
REMARK                            x       y       z     vdW  Elec       q    Type
REMARK                         _______ _______ _______ _____ _____    ______ ____
ROOT
ATOM      1  CG  TYR A   1      23.249  -5.422  11.948  0.00  0.00    -0.020 A 
ATOM      2  CD2 TYR A   1      22.865  -5.408  13.284  0.00  0.00    -0.001 A 
ATOM      3  CE2 TYR A   1      22.000  -4.427  13.769  0.00  0.00    +0.036 A 
ATOM      4  CZ  TYR A   1      21.482  -3.476  12.910  0.00  0.00    +0.134 A 
ATOM      5  CE1 TYR A   1      21.861  -3.481  11.583  0.00  0.00    +0.036 A 
ATOM      6  CD1 TYR A   1      22.727  -4.444  11.111  0.00  0.00    -0.001 A 
ENDROOT
BRANCH   4   7
ATOM      7  OH  TYR A   1      20.612  -2.484  13.369  0.00  0.00    -0.506 OA
ATOM      8  HH  TYR A   1      20.440  -2.619  14.334  0.00  0.00    +0.292 HD
ENDBRANCH   4   7
BRANCH   1   9
ATOM      9  CB  TYR A   1      24.185  -6.486  11.413  0.00  0.00    +0.051 C 
BRANCH   9  10
ATOM     10  CA  TYR A   1      25.674  -6.123  11.585  0.00  0.00    +0.137 C 
BRANCH  10  11
ATOM     11  N   TYR A   1      26.034  -4.993  10.726  0.00  0.00    -0.239 NA
ATOM     12  H   TYR A   1      26.041  -5.102   9.692  0.00  0.00    +0.142 HD
ENDBRANCH  10  11
BRANCH  10  13
ATOM     13  C   TYR A   1      26.561  -7.360  11.431  0.00  0.00    +0.224 C 
ATOM     14  O   TYR A   1      26.383  -8.314  12.176  0.00  0.00    -0.287 OA
ENDBRANCH  10  13
ENDBRANCH   9  10
ENDBRANCH   1   9
TORSDOF 5
REMARK  Name = ../refined-set-2016/4z1e/4z1e_pocket.pdb
REMARK  154 active torsions:
REMARK  status: ('A' for Active; 'I' for Inactive)
REMARK    1  A    between atoms: _1  and  _3
REMARK    2  A    between atoms: _3  and  _4
REMARK    3  A    between atoms: _3  and  _6
REMARK    4  A    between atoms: _6  and  _7
REMARK    5  A    between atoms: _17  and  _19
REMARK    6  A    between atoms: _19  and  _20
REMARK    7  A    between atoms: _19  and  _22
REMARK    8  A    between atoms: _22  and  _23
REMARK    9  A    between atoms: _28  and  _29
REMARK   10  A    between atoms: _31  and  _33
REMARK   11  A    between atoms: _33  and  _34
REMARK   12  A    between atoms: _33  and  _36
REMARK   13  A    between atoms: _36  and  _37
REMARK   14  A    between atoms: _40  and  _41
REMARK   15  A    between atoms: _46  and  _48
REMARK   16  A    between atoms: _48  and  _49
REMARK   17  A    between atoms: _48  and  _51
REMARK   18  A    between atoms: _51  and  _52
REMARK   19  A    between atoms: _55  and  _57
REMARK   20  A    between atoms: _57  and  _58
REMARK   21  A    between atoms: _57  and  _60
REMARK   22  A    between atoms: _60  and  _61
REMARK   23  A    between atoms: _66  and  _68
REMARK   24  A    between atoms: _68  and  _69
REMARK   25  A    between atoms: _72  and  _74
REMARK   26  A    between atoms: _74  and  _75
REMARK   27  A    between atoms: _74  and  _77
REMARK   28  A    between atoms: _77  and  _78
REMARK   29  A    between atoms: _83  and  _85
REMARK   30  A    between atoms: _85  and  _86
REMARK   31  A    between atoms: _85  and  _88
REMARK   32  A    between atoms: _88  and  _89
REMARK   33  A    between atoms: _89  and  _90
REMARK   34  A    between atoms: _93  and  _95
REMARK   35  A    between atoms: _95  and  _96
REMARK   36  A    between atoms: _95  and  _98
REMARK   37  A    between atoms: _98  and  _99
REMARK   38  A    between atoms: _102  and  _104
REMARK   39  A    between atoms: _104  and  _105
REMARK   40  A    between atoms: _104  and  _107
REMARK   41  A    between atoms: _107  and  _108
REMARK   42  A    between atoms: _108  and  _109
REMARK   43  A    between atoms: _114  and  _116
REMARK   44  A    between atoms: _116  and  _117
REMARK   45  A    between atoms: _116  and  _119
REMARK   46  A    between atoms: _119  and  _120
REMARK   47  A    between atoms: _126  and  _128
REMARK   48  A    between atoms: _139  and  _142
REMARK   49  A    between atoms: _142  and  _143
REMARK   50  A    between atoms: _151  and  _152
REMARK   51  A    between atoms: _160  and  _162
REMARK   52  A    between atoms: _162  and  _163
REMARK   53  A    between atoms: _162  and  _165
REMARK   54  A    between atoms: _165  and  _166
REMARK   55  A    between atoms: _166  and  _167
REMARK   56  A    between atoms: _170  and  _172
REMARK   57  A    between atoms: _172  and  _173
REMARK   58  A    between atoms: _172  and  _175
REMARK   59  A    between atoms: _175  and  _176
REMARK   60  A    between atoms: _181  and  _183
REMARK   61  A    between atoms: _183  and  _184
REMARK   62  A    between atoms: _183  and  _186
REMARK   63  A    between atoms: _186  and  _187
REMARK   64  A    between atoms: _187  and  _188
REMARK   65  A    between atoms: _191  and  _193
REMARK   66  A    between atoms: _193  and  _194
REMARK   67  A    between atoms: _193  and  _196
REMARK   68  A    between atoms: _196  and  _197
REMARK   69  A    between atoms: _200  and  _202
REMARK   70  A    between atoms: _202  and  _203
REMARK   71  A    between atoms: _202  and  _205
REMARK   72  A    between atoms: _205  and  _206
REMARK   73  A    between atoms: _207  and  ZN_427
REMARK   74  A    between atoms: _211  and  _213
REMARK   75  A    between atoms: _213  and  _214
REMARK   76  A    between atoms: _213  and  _216
REMARK   77  A    between atoms: _216  and  _217
REMARK   78  A    between atoms: _220  and  _222
REMARK   79  A    between atoms: _222  and  _223
REMARK   80  A    between atoms: _222  and  _225
REMARK   81  A    between atoms: _228  and  _230
REMARK   82  A    between atoms: _230  and  _231
REMARK   83  A    between atoms: _230  and  _233
REMARK   84  A    between atoms: _233  and  _234
REMARK   85  A    between atoms: _239  and  _241
REMARK   86  A    between atoms: _241  and  _242
REMARK   87  A    between atoms: _241  and  _244
REMARK   88  A    between atoms: _244  and  _245
REMARK   89  A    between atoms: _251  and  _253
REMARK   90  A    between atoms: _253  and  _254
REMARK   91  A    between atoms: _256  and  _258
REMARK   92  A    between atoms: _258  and  _259
REMARK   93  A    between atoms: _258  and  _261
REMARK   94  A    between atoms: _264  and  _266
REMARK   95  A    between atoms: _266  and  _267
REMARK   96  A    between atoms: _266  and  _269
REMARK   97  A    between atoms: _269  and  _270
REMARK   98  A    between atoms: _273  and  _275
REMARK   99  A    between atoms: _275  and  _276
REMARK  100  A    between atoms: _279  and  _281
REMARK  101  A    between atoms: _281  and  _282
REMARK  102  A    between atoms: _281  and  _284
REMARK  103  A    between atoms: _287  and  _289
REMARK  104  A    between atoms: _289  and  _290
REMARK  105  A    between atoms: _289  and  _292
REMARK  106  A    between atoms: _292  and  _293
REMARK  107  A    between atoms: _296  and  _298
REMARK  108  A    between atoms: _298  and  _299
REMARK  109  A    between atoms: _301  and  _303
REMARK  110  A    between atoms: _303  and  _304
REMARK  111  A    between atoms: _303  and  _306
REMARK  112  A    between atoms: _306  and  _307
REMARK  113  A    between atoms: _309  and  _311
REMARK  114  A    between atoms: _311  and  _312
REMARK  115  A    between atoms: _311  and  _314
REMARK  116  A    between atoms: _314  and  _315
REMARK  117  A    between atoms: _318  and  _320
REMARK  118  A    between atoms: _320  and  _321
REMARK  119  A    between atoms: _320  and  _323
REMARK  120  A    between atoms: _323  and  _324
REMARK  121  A    between atoms: _327  and  _329
REMARK  122  A    between atoms: _329  and  _330
REMARK  123  A    between atoms: _329  and  _332
REMARK  124  A    between atoms: _332  and  _333
REMARK  125  A    between atoms: _337  and  _338
REMARK  126  A    between atoms: _344  and  _345
REMARK  127  A    between atoms: _350  and  _352
REMARK  128  A    between atoms: _352  and  _353
REMARK  129  A    between atoms: _352  and  _355
REMARK  130  A    between atoms: _355  and  _356
REMARK  131  A    between atoms: _359  and  _361
REMARK  132  A    between atoms: _361  and  _362
REMARK  133  A    between atoms: _361  and  _364
REMARK  134  A    between atoms: _364  and  _365
REMARK  135  A    between atoms: _368  and  _370
REMARK  136  A    between atoms: _370  and  _371
REMARK  137  A    between atoms: _370  and  _373
REMARK  138  A    between atoms: _375  and  _377
REMARK  139  A    between atoms: _377  and  _378
REMARK  140  A    between atoms: _377  and  _380
REMARK  141  A    between atoms: _383  and  _385
REMARK  142  A    between atoms: _385  and  _386
REMARK  143  A    between atoms: _385  and  _388
REMARK  144  A    between atoms: _388  and  _389
REMARK  145  A    between atoms: _399  and  _401
REMARK  146  A    between atoms: _401  and  _402
REMARK  147  A    between atoms: _401  and  _404
REMARK  148  A    between atoms: _404  and  _405
REMARK  149  A    between atoms: _410  and  _412
REMARK  150  A    between atoms: _412  and  _413
REMARK  151  A    between atoms: _412  and  _415
REMARK  152  A    between atoms: _415  and  _416
REMARK  153  A    between atoms: _416  and  _417
REMARK  154  A    between atoms: _417  and  _418
REMARK                            x       y       z     vdW  Elec       q    Type
REMARK                         _______ _______ _______ _____ _____    ______ ____
ROOT
ATOM      1  C   SER A   1      18.936  -1.420  23.176  0.00  0.00    +0.244 C 
ATOM      2  N   PRO A   2      18.268  -2.581  22.903  0.00  0.00    -0.273 N 
ATOM      3  CA  PRO A   2      17.143  -3.088  23.718  0.00  0.00    +0.140 C 
ATOM      4  CB  PRO A   2      16.531  -4.159  22.805  0.00  0.00    +0.030 C 
ATOM      5  CG  PRO A   2      17.716  -4.726  22.102  0.00  0.00    +0.024 C 
ATOM      6  CD  PRO A   2      18.636  -3.548  21.847  0.00  0.00    +0.094 C 
ATOM      7  O   SER A   1      19.943  -1.079  22.555  0.00  0.00    -0.273 OA
ENDROOT
BRANCH   3   8
ATOM      8  C   PRO A   2      17.553  -3.740  25.046  0.00  0.00    +0.227 C 
ATOM      9  O   PRO A   2      18.753  -3.812  25.378  0.00  0.00    -0.286 OA
ENDBRANCH   3   8
BRANCH   1  10
ATOM     10  CA  SER A   1      18.408  -0.541  24.340  0.00  0.00    +0.175 C 
BRANCH  10  11
ATOM     11  N   SER A   1      19.428   0.366  24.852  0.00  0.00    -0.236 NA
ATOM     12  H   SER A   1      19.882   1.007  24.170  0.00  0.00    +0.142 HD
ENDBRANCH  10  11
BRANCH  10  13
ATOM     13  CB  SER A   1      17.206   0.280  23.845  0.00  0.00    +0.163 C 
BRANCH  13  14
ATOM     14  OG  SER A   1      16.604   1.046  24.899  0.00  0.00    -0.380 OA
ATOM     15  H   SER A   1      16.288   0.435  25.611  0.00  0.00    +0.211 HD
ENDBRANCH  13  14
ENDBRANCH  10  13
ENDBRANCH   1  10
TORSDOF 5
REMARK  Name = ../refined-set-2016/4z1e/4z1e_pocket.pdb
REMARK  154 active torsions:
REMARK  status: ('A' for Active; 'I' for Inactive)
REMARK    1  A    between atoms: _1  and  _3
REMARK    2  A    between atoms: _3  and  _4
REMARK    3  A    between atoms: _3  and  _6
REMARK    4  A    between atoms: _6  and  _7
REMARK    5  A    between atoms: _17  and  _19
REMARK    6  A    between atoms: _19  and  _20
REMARK    7  A    between atoms: _19  and  _22
REMARK    8  A    between atoms: _22  and  _23
REMARK    9  A    between atoms: _28  and  _29
REMARK   10  A    between atoms: _31  and  _33
REMARK   11  A    between atoms: _33  and  _34
REMARK   12  A    between atoms: _33  and  _36
REMARK   13  A    between atoms: _36  and  _37
REMARK   14  A    between atoms: _40  and  _41
REMARK   15  A    between atoms: _46  and  _48
REMARK   16  A    between atoms: _48  and  _49
REMARK   17  A    between atoms: _48  and  _51
REMARK   18  A    between atoms: _51  and  _52
REMARK   19  A    between atoms: _55  and  _57
REMARK   20  A    between atoms: _57  and  _58
REMARK   21  A    between atoms: _57  and  _60
REMARK   22  A    between atoms: _60  and  _61
REMARK   23  A    between atoms: _66  and  _68
REMARK   24  A    between atoms: _68  and  _69
REMARK   25  A    between atoms: _72  and  _74
REMARK   26  A    between atoms: _74  and  _75
REMARK   27  A    between atoms: _74  and  _77
REMARK   28  A    between atoms: _77  and  _78
REMARK   29  A    between atoms: _83  and  _85
REMARK   30  A    between atoms: _85  and  _86
REMARK   31  A    between atoms: _85  and  _88
REMARK   32  A    between atoms: _88  and  _89
REMARK   33  A    between atoms: _89  and  _90
REMARK   34  A    between atoms: _93  and  _95
REMARK   35  A    between atoms: _95  and  _96
REMARK   36  A    between atoms: _95  and  _98
REMARK   37  A    between atoms: _98  and  _99
REMARK   38  A    between atoms: _102  and  _104
REMARK   39  A    between atoms: _104  and  _105
REMARK   40  A    between atoms: _104  and  _107
REMARK   41  A    between atoms: _107  and  _108
REMARK   42  A    between atoms: _108  and  _109
REMARK   43  A    between atoms: _114  and  _116
REMARK   44  A    between atoms: _116  and  _117
REMARK   45  A    between atoms: _116  and  _119
REMARK   46  A    between atoms: _119  and  _120
REMARK   47  A    between atoms: _126  and  _128
REMARK   48  A    between atoms: _139  and  _142
REMARK   49  A    between atoms: _142  and  _143
REMARK   50  A    between atoms: _151  and  _152
REMARK   51  A    between atoms: _160  and  _162
REMARK   52  A    between atoms: _162  and  _163
REMARK   53  A    between atoms: _162  and  _165
REMARK   54  A    between atoms: _165  and  _166
REMARK   55  A    between atoms: _166  and  _167
REMARK   56  A    between atoms: _170  and  _172
REMARK   57  A    between atoms: _172  and  _173
REMARK   58  A    between atoms: _172  and  _175
REMARK   59  A    between atoms: _175  and  _176
REMARK   60  A    between atoms: _181  and  _183
REMARK   61  A    between atoms: _183  and  _184
REMARK   62  A    between atoms: _183  and  _186
REMARK   63  A    between atoms: _186  and  _187
REMARK   64  A    between atoms: _187  and  _188
REMARK   65  A    between atoms: _191  and  _193
REMARK   66  A    between atoms: _193  and  _194
REMARK   67  A    between atoms: _193  and  _196
REMARK   68  A    between atoms: _196  and  _197
REMARK   69  A    between atoms: _200  and  _202
REMARK   70  A    between atoms: _202  and  _203
REMARK   71  A    between atoms: _202  and  _205
REMARK   72  A    between atoms: _205  and  _206
REMARK   73  A    between atoms: _207  and  ZN_427
REMARK   74  A    between atoms: _211  and  _213
REMARK   75  A    between atoms: _213  and  _214
REMARK   76  A    between atoms: _213  and  _216
REMARK   77  A    between atoms: _216  and  _217
REMARK   78  A    between atoms: _220  and  _222
REMARK   79  A    between atoms: _222  and  _223
REMARK   80  A    between atoms: _222  and  _225
REMARK   81  A    between atoms: _228  and  _230
REMARK   82  A    between atoms: _230  and  _231
REMARK   83  A    between atoms: _230  and  _233
REMARK   84  A    between atoms: _233  and  _234
REMARK   85  A    between atoms: _239  and  _241
REMARK   86  A    between atoms: _241  and  _242
REMARK   87  A    between atoms: _241  and  _244
REMARK   88  A    between atoms: _244  and  _245
REMARK   89  A    between atoms: _251  and  _253
REMARK   90  A    between atoms: _253  and  _254
REMARK   91  A    between atoms: _256  and  _258
REMARK   92  A    between atoms: _258  and  _259
REMARK   93  A    between atoms: _258  and  _261
REMARK   94  A    between atoms: _264  and  _266
REMARK   95  A    between atoms: _266  and  _267
REMARK   96  A    between atoms: _266  and  _269
REMARK   97  A    between atoms: _269  and  _270
REMARK   98  A    between atoms: _273  and  _275
REMARK   99  A    between atoms: _275  and  _276
REMARK  100  A    between atoms: _279  and  _281
REMARK  101  A    between atoms: _281  and  _282
REMARK  102  A    between atoms: _281  and  _284
REMARK  103  A    between atoms: _287  and  _289
REMARK  104  A    between atoms: _289  and  _290
REMARK  105  A    between atoms: _289  and  _292
REMARK  106  A    between atoms: _292  and  _293
REMARK  107  A    between atoms: _296  and  _298
REMARK  108  A    between atoms: _298  and  _299
REMARK  109  A    between atoms: _301  and  _303
REMARK  110  A    between atoms: _303  and  _304
REMARK  111  A    between atoms: _303  and  _306
REMARK  112  A    between atoms: _306  and  _307
REMARK  113  A    between atoms: _309  and  _311
REMARK  114  A    between atoms: _311  and  _312
REMARK  115  A    between atoms: _311  and  _314
REMARK  116  A    between atoms: _314  and  _315
REMARK  117  A    between atoms: _318  and  _320
REMARK  118  A    between atoms: _320  and  _321
REMARK  119  A    between atoms: _320  and  _323
REMARK  120  A    between atoms: _323  and  _324
REMARK  121  A    between atoms: _327  and  _329
REMARK  122  A    between atoms: _329  and  _330
REMARK  123  A    between atoms: _329  and  _332
REMARK  124  A    between atoms: _332  and  _333
REMARK  125  A    between atoms: _337  and  _338
REMARK  126  A    between atoms: _344  and  _345
REMARK  127  A    between atoms: _350  and  _352
REMARK  128  A    between atoms: _352  and  _353
REMARK  129  A    between atoms: _352  and  _355
REMARK  130  A    between atoms: _355  and  _356
REMARK  131  A    between atoms: _359  and  _361
REMARK  132  A    between atoms: _361  and  _362
REMARK  133  A    between atoms: _361  and  _364
REMARK  134  A    between atoms: _364  and  _365
REMARK  135  A    between atoms: _368  and  _370
REMARK  136  A    between atoms: _370  and  _371
REMARK  137  A    between atoms: _370  and  _373
REMARK  138  A    between atoms: _375  and  _377
REMARK  139  A    between atoms: _377  and  _378
REMARK  140  A    between atoms: _377  and  _380
REMARK  141  A    between atoms: _383  and  _385
REMARK  142  A    between atoms: _385  and  _386
REMARK  143  A    between atoms: _385  and  _388
REMARK  144  A    between atoms: _388  and  _389
REMARK  145  A    between atoms: _399  and  _401
REMARK  146  A    between atoms: _401  and  _402
REMARK  147  A    between atoms: _401  and  _404
REMARK  148  A    between atoms: _404  and  _405
REMARK  149  A    between atoms: _410  and  _412
REMARK  150  A    between atoms: _412  and  _413
REMARK  151  A    between atoms: _412  and  _415
REMARK  152  A    between atoms: _415  and  _416
REMARK  153  A    between atoms: _416  and  _417
REMARK  154  A    between atoms: _417  and  _418
REMARK                            x       y       z     vdW  Elec       q    Type
REMARK                         _______ _______ _______ _____ _____    ______ ____
ROOT
ATOM      1  CA  LEU A   1      13.787   3.755   1.689  0.00  0.00    +0.133 C 
ENDROOT
BRANCH   1   2
ATOM      2  N   LEU A   1      12.358   3.730   1.983  0.00  0.00    -0.239 NA
ATOM      3  H   LEU A   1      12.053   3.545   2.960  0.00  0.00    +0.142 HD
ENDBRANCH   1   2
BRANCH   1   4
ATOM      4  C   LEU A   1      14.582   2.538   2.258  0.00  0.00    +0.224 C 
ATOM      5  O   LEU A   1      14.398   2.181   3.409  0.00  0.00    -0.287 OA
ENDBRANCH   1   4
BRANCH   1   6
ATOM      6  CB  LEU A   1      14.338   5.065   2.284  0.00  0.00    +0.025 C 
BRANCH   6   7
ATOM      7  CG  LEU A   1      15.827   5.330   2.397  0.00  0.00    +0.002 C 
ATOM      8  CD2 LEU A   1      16.116   6.487   3.339  0.00  0.00    +0.000 C 
ATOM      9  CD1 LEU A   1      16.430   5.605   1.030  0.00  0.00    +0.000 C 
ENDBRANCH   6   7
ENDBRANCH   1   6
TORSDOF 4
REMARK  Name = ../refined-set-2016/4z1e/4z1e_pocket.pdb
REMARK  154 active torsions:
REMARK  status: ('A' for Active; 'I' for Inactive)
REMARK    1  A    between atoms: _1  and  _3
REMARK    2  A    between atoms: _3  and  _4
REMARK    3  A    between atoms: _3  and  _6
REMARK    4  A    between atoms: _6  and  _7
REMARK    5  A    between atoms: _17  and  _19
REMARK    6  A    between atoms: _19  and  _20
REMARK    7  A    between atoms: _19  and  _22
REMARK    8  A    between atoms: _22  and  _23
REMARK    9  A    between atoms: _28  and  _29
REMARK   10  A    between atoms: _31  and  _33
REMARK   11  A    between atoms: _33  and  _34
REMARK   12  A    between atoms: _33  and  _36
REMARK   13  A    between atoms: _36  and  _37
REMARK   14  A    between atoms: _40  and  _41
REMARK   15  A    between atoms: _46  and  _48
REMARK   16  A    between atoms: _48  and  _49
REMARK   17  A    between atoms: _48  and  _51
REMARK   18  A    between atoms: _51  and  _52
REMARK   19  A    between atoms: _55  and  _57
REMARK   20  A    between atoms: _57  and  _58
REMARK   21  A    between atoms: _57  and  _60
REMARK   22  A    between atoms: _60  and  _61
REMARK   23  A    between atoms: _66  and  _68
REMARK   24  A    between atoms: _68  and  _69
REMARK   25  A    between atoms: _72  and  _74
REMARK   26  A    between atoms: _74  and  _75
REMARK   27  A    between atoms: _74  and  _77
REMARK   28  A    between atoms: _77  and  _78
REMARK   29  A    between atoms: _83  and  _85
REMARK   30  A    between atoms: _85  and  _86
REMARK   31  A    between atoms: _85  and  _88
REMARK   32  A    between atoms: _88  and  _89
REMARK   33  A    between atoms: _89  and  _90
REMARK   34  A    between atoms: _93  and  _95
REMARK   35  A    between atoms: _95  and  _96
REMARK   36  A    between atoms: _95  and  _98
REMARK   37  A    between atoms: _98  and  _99
REMARK   38  A    between atoms: _102  and  _104
REMARK   39  A    between atoms: _104  and  _105
REMARK   40  A    between atoms: _104  and  _107
REMARK   41  A    between atoms: _107  and  _108
REMARK   42  A    between atoms: _108  and  _109
REMARK   43  A    between atoms: _114  and  _116
REMARK   44  A    between atoms: _116  and  _117
REMARK   45  A    between atoms: _116  and  _119
REMARK   46  A    between atoms: _119  and  _120
REMARK   47  A    between atoms: _126  and  _128
REMARK   48  A    between atoms: _139  and  _142
REMARK   49  A    between atoms: _142  and  _143
REMARK   50  A    between atoms: _151  and  _152
REMARK   51  A    between atoms: _160  and  _162
REMARK   52  A    between atoms: _162  and  _163
REMARK   53  A    between atoms: _162  and  _165
REMARK   54  A    between atoms: _165  and  _166
REMARK   55  A    between atoms: _166  and  _167
REMARK   56  A    between atoms: _170  and  _172
REMARK   57  A    between atoms: _172  and  _173
REMARK   58  A    between atoms: _172  and  _175
REMARK   59  A    between atoms: _175  and  _176
REMARK   60  A    between atoms: _181  and  _183
REMARK   61  A    between atoms: _183  and  _184
REMARK   62  A    between atoms: _183  and  _186
REMARK   63  A    between atoms: _186  and  _187
REMARK   64  A    between atoms: _187  and  _188
REMARK   65  A    between atoms: _191  and  _193
REMARK   66  A    between atoms: _193  and  _194
REMARK   67  A    between atoms: _193  and  _196
REMARK   68  A    between atoms: _196  and  _197
REMARK   69  A    between atoms: _200  and  _202
REMARK   70  A    between atoms: _202  and  _203
REMARK   71  A    between atoms: _202  and  _205
REMARK   72  A    between atoms: _205  and  _206
REMARK   73  A    between atoms: _207  and  ZN_427
REMARK   74  A    between atoms: _211  and  _213
REMARK   75  A    between atoms: _213  and  _214
REMARK   76  A    between atoms: _213  and  _216
REMARK   77  A    between atoms: _216  and  _217
REMARK   78  A    between atoms: _220  and  _222
REMARK   79  A    between atoms: _222  and  _223
REMARK   80  A    between atoms: _222  and  _225
REMARK   81  A    between atoms: _228  and  _230
REMARK   82  A    between atoms: _230  and  _231
REMARK   83  A    between atoms: _230  and  _233
REMARK   84  A    between atoms: _233  and  _234
REMARK   85  A    between atoms: _239  and  _241
REMARK   86  A    between atoms: _241  and  _242
REMARK   87  A    between atoms: _241  and  _244
REMARK   88  A    between atoms: _244  and  _245
REMARK   89  A    between atoms: _251  and  _253
REMARK   90  A    between atoms: _253  and  _254
REMARK   91  A    between atoms: _256  and  _258
REMARK   92  A    between atoms: _258  and  _259
REMARK   93  A    between atoms: _258  and  _261
REMARK   94  A    between atoms: _264  and  _266
REMARK   95  A    between atoms: _266  and  _267
REMARK   96  A    between atoms: _266  and  _269
REMARK   97  A    between atoms: _269  and  _270
REMARK   98  A    between atoms: _273  and  _275
REMARK   99  A    between atoms: _275  and  _276
REMARK  100  A    between atoms: _279  and  _281
REMARK  101  A    between atoms: _281  and  _282
REMARK  102  A    between atoms: _281  and  _284
REMARK  103  A    between atoms: _287  and  _289
REMARK  104  A    between atoms: _289  and  _290
REMARK  105  A    between atoms: _289  and  _292
REMARK  106  A    between atoms: _292  and  _293
REMARK  107  A    between atoms: _296  and  _298
REMARK  108  A    between atoms: _298  and  _299
REMARK  109  A    between atoms: _301  and  _303
REMARK  110  A    between atoms: _303  and  _304
REMARK  111  A    between atoms: _303  and  _306
REMARK  112  A    between atoms: _306  and  _307
REMARK  113  A    between atoms: _309  and  _311
REMARK  114  A    between atoms: _311  and  _312
REMARK  115  A    between atoms: _311  and  _314
REMARK  116  A    between atoms: _314  and  _315
REMARK  117  A    between atoms: _318  and  _320
REMARK  118  A    between atoms: _320  and  _321
REMARK  119  A    between atoms: _320  and  _323
REMARK  120  A    between atoms: _323  and  _324
REMARK  121  A    between atoms: _327  and  _329
REMARK  122  A    between atoms: _329  and  _330
REMARK  123  A    between atoms: _329  and  _332
REMARK  124  A    between atoms: _332  and  _333
REMARK  125  A    between atoms: _337  and  _338
REMARK  126  A    between atoms: _344  and  _345
REMARK  127  A    between atoms: _350  and  _352
REMARK  128  A    between atoms: _352  and  _353
REMARK  129  A    between atoms: _352  and  _355
REMARK  130  A    between atoms: _355  and  _356
REMARK  131  A    between atoms: _359  and  _361
REMARK  132  A    between atoms: _361  and  _362
REMARK  133  A    between atoms: _361  and  _364
REMARK  134  A    between atoms: _364  and  _365
REMARK  135  A    between atoms: _368  and  _370
REMARK  136  A    between atoms: _370  and  _371
REMARK  137  A    between atoms: _370  and  _373
REMARK  138  A    between atoms: _375  and  _377
REMARK  139  A    between atoms: _377  and  _378
REMARK  140  A    between atoms: _377  and  _380
REMARK  141  A    between atoms: _383  and  _385
REMARK  142  A    between atoms: _385  and  _386
REMARK  143  A    between atoms: _385  and  _388
REMARK  144  A    between atoms: _388  and  _389
REMARK  145  A    between atoms: _399  and  _401
REMARK  146  A    between atoms: _401  and  _402
REMARK  147  A    between atoms: _401  and  _404
REMARK  148  A    between atoms: _404  and  _405
REMARK  149  A    between atoms: _410  and  _412
REMARK  150  A    between atoms: _412  and  _413
REMARK  151  A    between atoms: _412  and  _415
REMARK  152  A    between atoms: _415  and  _416
REMARK  153  A    between atoms: _416  and  _417
REMARK  154  A    between atoms: _417  and  _418
REMARK                            x       y       z     vdW  Elec       q    Type
REMARK                         _______ _______ _______ _____ _____    ______ ____
ROOT
ATOM      1  CB  ASN A   1      18.965   3.467   5.298  0.00  0.00    +0.110 C 
ENDROOT
BRANCH   1   2
ATOM      2  CG  ASN A   1      18.459   2.618   6.472  0.00  0.00    +0.221 C 
ATOM      3  ND2 ASN A   1      17.640   3.235   7.323  0.00  0.00    -0.329 N 
ATOM      4 HD21 ASN A   1      17.265   2.723   8.147  0.00  0.00    +0.145 HD
ATOM      5 HD22 ASN A   1      17.376   4.228   7.163  0.00  0.00    +0.145 HD
ATOM      6  OD1 ASN A   1      18.804   1.438   6.616  0.00  0.00    -0.275 OA
ENDBRANCH   1   2
BRANCH   1   7
ATOM      7  CA  ASN A   1      19.272   2.632   4.036  0.00  0.00    +0.142 C 
BRANCH   7   8
ATOM      8  N   ASN A   1      18.085   1.848   3.597  0.00  0.00    -0.239 NA
ATOM      9  H   ASN A   1      17.503   1.360   4.307  0.00  0.00    +0.142 HD
ENDBRANCH   7   8
BRANCH   7  10
ATOM     10  C   ASN A   1      20.490   1.783   4.284  0.00  0.00    +0.225 C 
ATOM     11  O   ASN A   1      21.457   2.219   4.966  0.00  0.00    -0.287 OA
ENDBRANCH   7  10
ENDBRANCH   1   7
TORSDOF 4
REMARK  Name = ../refined-set-2016/4z1e/4z1e_pocket.pdb
REMARK  154 active torsions:
REMARK  status: ('A' for Active; 'I' for Inactive)
REMARK    1  A    between atoms: _1  and  _3
REMARK    2  A    between atoms: _3  and  _4
REMARK    3  A    between atoms: _3  and  _6
REMARK    4  A    between atoms: _6  and  _7
REMARK    5  A    between atoms: _17  and  _19
REMARK    6  A    between atoms: _19  and  _20
REMARK    7  A    between atoms: _19  and  _22
REMARK    8  A    between atoms: _22  and  _23
REMARK    9  A    between atoms: _28  and  _29
REMARK   10  A    between atoms: _31  and  _33
REMARK   11  A    between atoms: _33  and  _34
REMARK   12  A    between atoms: _33  and  _36
REMARK   13  A    between atoms: _36  and  _37
REMARK   14  A    between atoms: _40  and  _41
REMARK   15  A    between atoms: _46  and  _48
REMARK   16  A    between atoms: _48  and  _49
REMARK   17  A    between atoms: _48  and  _51
REMARK   18  A    between atoms: _51  and  _52
REMARK   19  A    between atoms: _55  and  _57
REMARK   20  A    between atoms: _57  and  _58
REMARK   21  A    between atoms: _57  and  _60
REMARK   22  A    between atoms: _60  and  _61
REMARK   23  A    between atoms: _66  and  _68
REMARK   24  A    between atoms: _68  and  _69
REMARK   25  A    between atoms: _72  and  _74
REMARK   26  A    between atoms: _74  and  _75
REMARK   27  A    between atoms: _74  and  _77
REMARK   28  A    between atoms: _77  and  _78
REMARK   29  A    between atoms: _83  and  _85
REMARK   30  A    between atoms: _85  and  _86
REMARK   31  A    between atoms: _85  and  _88
REMARK   32  A    between atoms: _88  and  _89
REMARK   33  A    between atoms: _89  and  _90
REMARK   34  A    between atoms: _93  and  _95
REMARK   35  A    between atoms: _95  and  _96
REMARK   36  A    between atoms: _95  and  _98
REMARK   37  A    between atoms: _98  and  _99
REMARK   38  A    between atoms: _102  and  _104
REMARK   39  A    between atoms: _104  and  _105
REMARK   40  A    between atoms: _104  and  _107
REMARK   41  A    between atoms: _107  and  _108
REMARK   42  A    between atoms: _108  and  _109
REMARK   43  A    between atoms: _114  and  _116
REMARK   44  A    between atoms: _116  and  _117
REMARK   45  A    between atoms: _116  and  _119
REMARK   46  A    between atoms: _119  and  _120
REMARK   47  A    between atoms: _126  and  _128
REMARK   48  A    between atoms: _139  and  _142
REMARK   49  A    between atoms: _142  and  _143
REMARK   50  A    between atoms: _151  and  _152
REMARK   51  A    between atoms: _160  and  _162
REMARK   52  A    between atoms: _162  and  _163
REMARK   53  A    between atoms: _162  and  _165
REMARK   54  A    between atoms: _165  and  _166
REMARK   55  A    between atoms: _166  and  _167
REMARK   56  A    between atoms: _170  and  _172
REMARK   57  A    between atoms: _172  and  _173
REMARK   58  A    between atoms: _172  and  _175
REMARK   59  A    between atoms: _175  and  _176
REMARK   60  A    between atoms: _181  and  _183
REMARK   61  A    between atoms: _183  and  _184
REMARK   62  A    between atoms: _183  and  _186
REMARK   63  A    between atoms: _186  and  _187
REMARK   64  A    between atoms: _187  and  _188
REMARK   65  A    between atoms: _191  and  _193
REMARK   66  A    between atoms: _193  and  _194
REMARK   67  A    between atoms: _193  and  _196
REMARK   68  A    between atoms: _196  and  _197
REMARK   69  A    between atoms: _200  and  _202
REMARK   70  A    between atoms: _202  and  _203
REMARK   71  A    between atoms: _202  and  _205
REMARK   72  A    between atoms: _205  and  _206
REMARK   73  A    between atoms: _207  and  ZN_427
REMARK   74  A    between atoms: _211  and  _213
REMARK   75  A    between atoms: _213  and  _214
REMARK   76  A    between atoms: _213  and  _216
REMARK   77  A    between atoms: _216  and  _217
REMARK   78  A    between atoms: _220  and  _222
REMARK   79  A    between atoms: _222  and  _223
REMARK   80  A    between atoms: _222  and  _225
REMARK   81  A    between atoms: _228  and  _230
REMARK   82  A    between atoms: _230  and  _231
REMARK   83  A    between atoms: _230  and  _233
REMARK   84  A    between atoms: _233  and  _234
REMARK   85  A    between atoms: _239  and  _241
REMARK   86  A    between atoms: _241  and  _242
REMARK   87  A    between atoms: _241  and  _244
REMARK   88  A    between atoms: _244  and  _245
REMARK   89  A    between atoms: _251  and  _253
REMARK   90  A    between atoms: _253  and  _254
REMARK   91  A    between atoms: _256  and  _258
REMARK   92  A    between atoms: _258  and  _259
REMARK   93  A    between atoms: _258  and  _261
REMARK   94  A    between atoms: _264  and  _266
REMARK   95  A    between atoms: _266  and  _267
REMARK   96  A    between atoms: _266  and  _269
REMARK   97  A    between atoms: _269  and  _270
REMARK   98  A    between atoms: _273  and  _275
REMARK   99  A    between atoms: _275  and  _276
REMARK  100  A    between atoms: _279  and  _281
REMARK  101  A    between atoms: _281  and  _282
REMARK  102  A    between atoms: _281  and  _284
REMARK  103  A    between atoms: _287  and  _289
REMARK  104  A    between atoms: _289  and  _290
REMARK  105  A    between atoms: _289  and  _292
REMARK  106  A    between atoms: _292  and  _293
REMARK  107  A    between atoms: _296  and  _298
REMARK  108  A    between atoms: _298  and  _299
REMARK  109  A    between atoms: _301  and  _303
REMARK  110  A    between atoms: _303  and  _304
REMARK  111  A    between atoms: _303  and  _306
REMARK  112  A    between atoms: _306  and  _307
REMARK  113  A    between atoms: _309  and  _311
REMARK  114  A    between atoms: _311  and  _312
REMARK  115  A    between atoms: _311  and  _314
REMARK  116  A    between atoms: _314  and  _315
REMARK  117  A    between atoms: _318  and  _320
REMARK  118  A    between atoms: _320  and  _321
REMARK  119  A    between atoms: _320  and  _323
REMARK  120  A    between atoms: _323  and  _324
REMARK  121  A    between atoms: _327  and  _329
REMARK  122  A    between atoms: _329  and  _330
REMARK  123  A    between atoms: _329  and  _332
REMARK  124  A    between atoms: _332  and  _333
REMARK  125  A    between atoms: _337  and  _338
REMARK  126  A    between atoms: _344  and  _345
REMARK  127  A    between atoms: _350  and  _352
REMARK  128  A    between atoms: _352  and  _353
REMARK  129  A    between atoms: _352  and  _355
REMARK  130  A    between atoms: _355  and  _356
REMARK  131  A    between atoms: _359  and  _361
REMARK  132  A    between atoms: _361  and  _362
REMARK  133  A    between atoms: _361  and  _364
REMARK  134  A    between atoms: _364  and  _365
REMARK  135  A    between atoms: _368  and  _370
REMARK  136  A    between atoms: _370  and  _371
REMARK  137  A    between atoms: _370  and  _373
REMARK  138  A    between atoms: _375  and  _377
REMARK  139  A    between atoms: _377  and  _378
REMARK  140  A    between atoms: _377  and  _380
REMARK  141  A    between atoms: _383  and  _385
REMARK  142  A    between atoms: _385  and  _386
REMARK  143  A    between atoms: _385  and  _388
REMARK  144  A    between atoms: _388  and  _389
REMARK  145  A    between atoms: _399  and  _401
REMARK  146  A    between atoms: _401  and  _402
REMARK  147  A    between atoms: _401  and  _404
REMARK  148  A    between atoms: _404  and  _405
REMARK  149  A    between atoms: _410  and  _412
REMARK  150  A    between atoms: _412  and  _413
REMARK  151  A    between atoms: _412  and  _415
REMARK  152  A    between atoms: _415  and  _416
REMARK  153  A    between atoms: _416  and  _417
REMARK  154  A    between atoms: _417  and  _418
REMARK                            x       y       z     vdW  Elec       q    Type
REMARK                         _______ _______ _______ _____ _____    ______ ____
ROOT
ATOM      1  CA  ALA A   1      16.658  -1.801   7.291  0.00  0.00    +0.133 C 
ATOM      2  CB  ALA A   1      16.050  -1.440   8.651  0.00  0.00    +0.027 C 
ENDROOT
BRANCH   1   3
ATOM      3  N   ALA A   1      18.037  -1.372   7.213  0.00  0.00    -0.239 NA
ATOM      4  H   ALA A   1      18.239  -0.509   6.668  0.00  0.00    +0.142 HD
ENDBRANCH   1   3
BRANCH   1   5
ATOM      5  C   ALA A   1      15.957  -1.034   6.167  0.00  0.00    +0.224 C 
ATOM      6  O   ALA A   1      16.632  -0.427   5.347  0.00  0.00    -0.287 OA
ENDBRANCH   1   5
TORSDOF 2
REMARK  Name = ../refined-set-2016/4z1e/4z1e_pocket.pdb
REMARK  154 active torsions:
REMARK  status: ('A' for Active; 'I' for Inactive)
REMARK    1  A    between atoms: _1  and  _3
REMARK    2  A    between atoms: _3  and  _4
REMARK    3  A    between atoms: _3  and  _6
REMARK    4  A    between atoms: _6  and  _7
REMARK    5  A    between atoms: _17  and  _19
REMARK    6  A    between atoms: _19  and  _20
REMARK    7  A    between atoms: _19  and  _22
REMARK    8  A    between atoms: _22  and  _23
REMARK    9  A    between atoms: _28  and  _29
REMARK   10  A    between atoms: _31  and  _33
REMARK   11  A    between atoms: _33  and  _34
REMARK   12  A    between atoms: _33  and  _36
REMARK   13  A    between atoms: _36  and  _37
REMARK   14  A    between atoms: _40  and  _41
REMARK   15  A    between atoms: _46  and  _48
REMARK   16  A    between atoms: _48  and  _49
REMARK   17  A    between atoms: _48  and  _51
REMARK   18  A    between atoms: _51  and  _52
REMARK   19  A    between atoms: _55  and  _57
REMARK   20  A    between atoms: _57  and  _58
REMARK   21  A    between atoms: _57  and  _60
REMARK   22  A    between atoms: _60  and  _61
REMARK   23  A    between atoms: _66  and  _68
REMARK   24  A    between atoms: _68  and  _69
REMARK   25  A    between atoms: _72  and  _74
REMARK   26  A    between atoms: _74  and  _75
REMARK   27  A    between atoms: _74  and  _77
REMARK   28  A    between atoms: _77  and  _78
REMARK   29  A    between atoms: _83  and  _85
REMARK   30  A    between atoms: _85  and  _86
REMARK   31  A    between atoms: _85  and  _88
REMARK   32  A    between atoms: _88  and  _89
REMARK   33  A    between atoms: _89  and  _90
REMARK   34  A    between atoms: _93  and  _95
REMARK   35  A    between atoms: _95  and  _96
REMARK   36  A    between atoms: _95  and  _98
REMARK   37  A    between atoms: _98  and  _99
REMARK   38  A    between atoms: _102  and  _104
REMARK   39  A    between atoms: _104  and  _105
REMARK   40  A    between atoms: _104  and  _107
REMARK   41  A    between atoms: _107  and  _108
REMARK   42  A    between atoms: _108  and  _109
REMARK   43  A    between atoms: _114  and  _116
REMARK   44  A    between atoms: _116  and  _117
REMARK   45  A    between atoms: _116  and  _119
REMARK   46  A    between atoms: _119  and  _120
REMARK   47  A    between atoms: _126  and  _128
REMARK   48  A    between atoms: _139  and  _142
REMARK   49  A    between atoms: _142  and  _143
REMARK   50  A    between atoms: _151  and  _152
REMARK   51  A    between atoms: _160  and  _162
REMARK   52  A    between atoms: _162  and  _163
REMARK   53  A    between atoms: _162  and  _165
REMARK   54  A    between atoms: _165  and  _166
REMARK   55  A    between atoms: _166  and  _167
REMARK   56  A    between atoms: _170  and  _172
REMARK   57  A    between atoms: _172  and  _173
REMARK   58  A    between atoms: _172  and  _175
REMARK   59  A    between atoms: _175  and  _176
REMARK   60  A    between atoms: _181  and  _183
REMARK   61  A    between atoms: _183  and  _184
REMARK   62  A    between atoms: _183  and  _186
REMARK   63  A    between atoms: _186  and  _187
REMARK   64  A    between atoms: _187  and  _188
REMARK   65  A    between atoms: _191  and  _193
REMARK   66  A    between atoms: _193  and  _194
REMARK   67  A    between atoms: _193  and  _196
REMARK   68  A    between atoms: _196  and  _197
REMARK   69  A    between atoms: _200  and  _202
REMARK   70  A    between atoms: _202  and  _203
REMARK   71  A    between atoms: _202  and  _205
REMARK   72  A    between atoms: _205  and  _206
REMARK   73  A    between atoms: _207  and  ZN_427
REMARK   74  A    between atoms: _211  and  _213
REMARK   75  A    between atoms: _213  and  _214
REMARK   76  A    between atoms: _213  and  _216
REMARK   77  A    between atoms: _216  and  _217
REMARK   78  A    between atoms: _220  and  _222
REMARK   79  A    between atoms: _222  and  _223
REMARK   80  A    between atoms: _222  and  _225
REMARK   81  A    between atoms: _228  and  _230
REMARK   82  A    between atoms: _230  and  _231
REMARK   83  A    between atoms: _230  and  _233
REMARK   84  A    between atoms: _233  and  _234
REMARK   85  A    between atoms: _239  and  _241
REMARK   86  A    between atoms: _241  and  _242
REMARK   87  A    between atoms: _241  and  _244
REMARK   88  A    between atoms: _244  and  _245
REMARK   89  A    between atoms: _251  and  _253
REMARK   90  A    between atoms: _253  and  _254
REMARK   91  A    between atoms: _256  and  _258
REMARK   92  A    between atoms: _258  and  _259
REMARK   93  A    between atoms: _258  and  _261
REMARK   94  A    between atoms: _264  and  _266
REMARK   95  A    between atoms: _266  and  _267
REMARK   96  A    between atoms: _266  and  _269
REMARK   97  A    between atoms: _269  and  _270
REMARK   98  A    between atoms: _273  and  _275
REMARK   99  A    between atoms: _275  and  _276
REMARK  100  A    between atoms: _279  and  _281
REMARK  101  A    between atoms: _281  and  _282
REMARK  102  A    between atoms: _281  and  _284
REMARK  103  A    between atoms: _287  and  _289
REMARK  104  A    between atoms: _289  and  _290
REMARK  105  A    between atoms: _289  and  _292
REMARK  106  A    between atoms: _292  and  _293
REMARK  107  A    between atoms: _296  and  _298
REMARK  108  A    between atoms: _298  and  _299
REMARK  109  A    between atoms: _301  and  _303
REMARK  110  A    between atoms: _303  and  _304
REMARK  111  A    between atoms: _303  and  _306
REMARK  112  A    between atoms: _306  and  _307
REMARK  113  A    between atoms: _309  and  _311
REMARK  114  A    between atoms: _311  and  _312
REMARK  115  A    between atoms: _311  and  _314
REMARK  116  A    between atoms: _314  and  _315
REMARK  117  A    between atoms: _318  and  _320
REMARK  118  A    between atoms: _320  and  _321
REMARK  119  A    between atoms: _320  and  _323
REMARK  120  A    between atoms: _323  and  _324
REMARK  121  A    between atoms: _327  and  _329
REMARK  122  A    between atoms: _329  and  _330
REMARK  123  A    between atoms: _329  and  _332
REMARK  124  A    between atoms: _332  and  _333
REMARK  125  A    between atoms: _337  and  _338
REMARK  126  A    between atoms: _344  and  _345
REMARK  127  A    between atoms: _350  and  _352
REMARK  128  A    between atoms: _352  and  _353
REMARK  129  A    between atoms: _352  and  _355
REMARK  130  A    between atoms: _355  and  _356
REMARK  131  A    between atoms: _359  and  _361
REMARK  132  A    between atoms: _361  and  _362
REMARK  133  A    between atoms: _361  and  _364
REMARK  134  A    between atoms: _364  and  _365
REMARK  135  A    between atoms: _368  and  _370
REMARK  136  A    between atoms: _370  and  _371
REMARK  137  A    between atoms: _370  and  _373
REMARK  138  A    between atoms: _375  and  _377
REMARK  139  A    between atoms: _377  and  _378
REMARK  140  A    between atoms: _377  and  _380
REMARK  141  A    between atoms: _383  and  _385
REMARK  142  A    between atoms: _385  and  _386
REMARK  143  A    between atoms: _385  and  _388
REMARK  144  A    between atoms: _388  and  _389
REMARK  145  A    between atoms: _399  and  _401
REMARK  146  A    between atoms: _401  and  _402
REMARK  147  A    between atoms: _401  and  _404
REMARK  148  A    between atoms: _404  and  _405
REMARK  149  A    between atoms: _410  and  _412
REMARK  150  A    between atoms: _412  and  _413
REMARK  151  A    between atoms: _412  and  _415
REMARK  152  A    between atoms: _415  and  _416
REMARK  153  A    between atoms: _416  and  _417
REMARK  154  A    between atoms: _417  and  _418
REMARK                            x       y       z     vdW  Elec       q    Type
REMARK                         _______ _______ _______ _____ _____    ______ ____
ROOT
ATOM      1  CB  ASN A   1      12.991   4.291   6.916  0.00  0.00    +0.110 C 
ENDROOT
BRANCH   1   2
ATOM      2  CG  ASN A   1      14.067   3.969   7.907  0.00  0.00    +0.221 C 
ATOM      3  OD1 ASN A   1      14.024   2.938   8.590  0.00  0.00    -0.275 OA
ATOM      4  ND2 ASN A   1      15.073   4.843   7.988  0.00  0.00    -0.329 N 
ATOM      5 HD21 ASN A   1      15.861   4.670   8.644  0.00  0.00    +0.145 HD
ATOM      6 HD22 ASN A   1      15.069   5.697   7.395  0.00  0.00    +0.145 HD
ENDBRANCH   1   2
BRANCH   1   7
ATOM      7  CA  ASN A   1      12.151   3.071   6.535  0.00  0.00    +0.142 C 
BRANCH   7   8
ATOM      8  N   ASN A   1      12.982   2.082   5.848  0.00  0.00    -0.239 NA
ATOM      9  H   ASN A   1      13.588   2.394   5.062  0.00  0.00    +0.142 HD
ENDBRANCH   7   8
BRANCH   7  10
ATOM     10  C   ASN A   1      10.985   3.548   5.691  0.00  0.00    +0.225 C 
ATOM     11  O   ASN A   1      11.177   4.068   4.571  0.00  0.00    -0.287 OA
ENDBRANCH   7  10
ENDBRANCH   1   7
TORSDOF 4
REMARK  Name = ../refined-set-2016/4z1e/4z1e_pocket.pdb
REMARK  154 active torsions:
REMARK  status: ('A' for Active; 'I' for Inactive)
REMARK    1  A    between atoms: _1  and  _3
REMARK    2  A    between atoms: _3  and  _4
REMARK    3  A    between atoms: _3  and  _6
REMARK    4  A    between atoms: _6  and  _7
REMARK    5  A    between atoms: _17  and  _19
REMARK    6  A    between atoms: _19  and  _20
REMARK    7  A    between atoms: _19  and  _22
REMARK    8  A    between atoms: _22  and  _23
REMARK    9  A    between atoms: _28  and  _29
REMARK   10  A    between atoms: _31  and  _33
REMARK   11  A    between atoms: _33  and  _34
REMARK   12  A    between atoms: _33  and  _36
REMARK   13  A    between atoms: _36  and  _37
REMARK   14  A    between atoms: _40  and  _41
REMARK   15  A    between atoms: _46  and  _48
REMARK   16  A    between atoms: _48  and  _49
REMARK   17  A    between atoms: _48  and  _51
REMARK   18  A    between atoms: _51  and  _52
REMARK   19  A    between atoms: _55  and  _57
REMARK   20  A    between atoms: _57  and  _58
REMARK   21  A    between atoms: _57  and  _60
REMARK   22  A    between atoms: _60  and  _61
REMARK   23  A    between atoms: _66  and  _68
REMARK   24  A    between atoms: _68  and  _69
REMARK   25  A    between atoms: _72  and  _74
REMARK   26  A    between atoms: _74  and  _75
REMARK   27  A    between atoms: _74  and  _77
REMARK   28  A    between atoms: _77  and  _78
REMARK   29  A    between atoms: _83  and  _85
REMARK   30  A    between atoms: _85  and  _86
REMARK   31  A    between atoms: _85  and  _88
REMARK   32  A    between atoms: _88  and  _89
REMARK   33  A    between atoms: _89  and  _90
REMARK   34  A    between atoms: _93  and  _95
REMARK   35  A    between atoms: _95  and  _96
REMARK   36  A    between atoms: _95  and  _98
REMARK   37  A    between atoms: _98  and  _99
REMARK   38  A    between atoms: _102  and  _104
REMARK   39  A    between atoms: _104  and  _105
REMARK   40  A    between atoms: _104  and  _107
REMARK   41  A    between atoms: _107  and  _108
REMARK   42  A    between atoms: _108  and  _109
REMARK   43  A    between atoms: _114  and  _116
REMARK   44  A    between atoms: _116  and  _117
REMARK   45  A    between atoms: _116  and  _119
REMARK   46  A    between atoms: _119  and  _120
REMARK   47  A    between atoms: _126  and  _128
REMARK   48  A    between atoms: _139  and  _142
REMARK   49  A    between atoms: _142  and  _143
REMARK   50  A    between atoms: _151  and  _152
REMARK   51  A    between atoms: _160  and  _162
REMARK   52  A    between atoms: _162  and  _163
REMARK   53  A    between atoms: _162  and  _165
REMARK   54  A    between atoms: _165  and  _166
REMARK   55  A    between atoms: _166  and  _167
REMARK   56  A    between atoms: _170  and  _172
REMARK   57  A    between atoms: _172  and  _173
REMARK   58  A    between atoms: _172  and  _175
REMARK   59  A    between atoms: _175  and  _176
REMARK   60  A    between atoms: _181  and  _183
REMARK   61  A    between atoms: _183  and  _184
REMARK   62  A    between atoms: _183  and  _186
REMARK   63  A    between atoms: _186  and  _187
REMARK   64  A    between atoms: _187  and  _188
REMARK   65  A    between atoms: _191  and  _193
REMARK   66  A    between atoms: _193  and  _194
REMARK   67  A    between atoms: _193  and  _196
REMARK   68  A    between atoms: _196  and  _197
REMARK   69  A    between atoms: _200  and  _202
REMARK   70  A    between atoms: _202  and  _203
REMARK   71  A    between atoms: _202  and  _205
REMARK   72  A    between atoms: _205  and  _206
REMARK   73  A    between atoms: _207  and  ZN_427
REMARK   74  A    between atoms: _211  and  _213
REMARK   75  A    between atoms: _213  and  _214
REMARK   76  A    between atoms: _213  and  _216
REMARK   77  A    between atoms: _216  and  _217
REMARK   78  A    between atoms: _220  and  _222
REMARK   79  A    between atoms: _222  and  _223
REMARK   80  A    between atoms: _222  and  _225
REMARK   81  A    between atoms: _228  and  _230
REMARK   82  A    between atoms: _230  and  _231
REMARK   83  A    between atoms: _230  and  _233
REMARK   84  A    between atoms: _233  and  _234
REMARK   85  A    between atoms: _239  and  _241
REMARK   86  A    between atoms: _241  and  _242
REMARK   87  A    between atoms: _241  and  _244
REMARK   88  A    between atoms: _244  and  _245
REMARK   89  A    between atoms: _251  and  _253
REMARK   90  A    between atoms: _253  and  _254
REMARK   91  A    between atoms: _256  and  _258
REMARK   92  A    between atoms: _258  and  _259
REMARK   93  A    between atoms: _258  and  _261
REMARK   94  A    between atoms: _264  and  _266
REMARK   95  A    between atoms: _266  and  _267
REMARK   96  A    between atoms: _266  and  _269
REMARK   97  A    between atoms: _269  and  _270
REMARK   98  A    between atoms: _273  and  _275
REMARK   99  A    between atoms: _275  and  _276
REMARK  100  A    between atoms: _279  and  _281
REMARK  101  A    between atoms: _281  and  _282
REMARK  102  A    between atoms: _281  and  _284
REMARK  103  A    between atoms: _287  and  _289
REMARK  104  A    between atoms: _289  and  _290
REMARK  105  A    between atoms: _289  and  _292
REMARK  106  A    between atoms: _292  and  _293
REMARK  107  A    between atoms: _296  and  _298
REMARK  108  A    between atoms: _298  and  _299
REMARK  109  A    between atoms: _301  and  _303
REMARK  110  A    between atoms: _303  and  _304
REMARK  111  A    between atoms: _303  and  _306
REMARK  112  A    between atoms: _306  and  _307
REMARK  113  A    between atoms: _309  and  _311
REMARK  114  A    between atoms: _311  and  _312
REMARK  115  A    between atoms: _311  and  _314
REMARK  116  A    between atoms: _314  and  _315
REMARK  117  A    between atoms: _318  and  _320
REMARK  118  A    between atoms: _320  and  _321
REMARK  119  A    between atoms: _320  and  _323
REMARK  120  A    between atoms: _323  and  _324
REMARK  121  A    between atoms: _327  and  _329
REMARK  122  A    between atoms: _329  and  _330
REMARK  123  A    between atoms: _329  and  _332
REMARK  124  A    between atoms: _332  and  _333
REMARK  125  A    between atoms: _337  and  _338
REMARK  126  A    between atoms: _344  and  _345
REMARK  127  A    between atoms: _350  and  _352
REMARK  128  A    between atoms: _352  and  _353
REMARK  129  A    between atoms: _352  and  _355
REMARK  130  A    between atoms: _355  and  _356
REMARK  131  A    between atoms: _359  and  _361
REMARK  132  A    between atoms: _361  and  _362
REMARK  133  A    between atoms: _361  and  _364
REMARK  134  A    between atoms: _364  and  _365
REMARK  135  A    between atoms: _368  and  _370
REMARK  136  A    between atoms: _370  and  _371
REMARK  137  A    between atoms: _370  and  _373
REMARK  138  A    between atoms: _375  and  _377
REMARK  139  A    between atoms: _377  and  _378
REMARK  140  A    between atoms: _377  and  _380
REMARK  141  A    between atoms: _383  and  _385
REMARK  142  A    between atoms: _385  and  _386
REMARK  143  A    between atoms: _385  and  _388
REMARK  144  A    between atoms: _388  and  _389
REMARK  145  A    between atoms: _399  and  _401
REMARK  146  A    between atoms: _401  and  _402
REMARK  147  A    between atoms: _401  and  _404
REMARK  148  A    between atoms: _404  and  _405
REMARK  149  A    between atoms: _410  and  _412
REMARK  150  A    between atoms: _412  and  _413
REMARK  151  A    between atoms: _412  and  _415
REMARK  152  A    between atoms: _415  and  _416
REMARK  153  A    between atoms: _416  and  _417
REMARK  154  A    between atoms: _417  and  _418
REMARK                            x       y       z     vdW  Elec       q    Type
REMARK                         _______ _______ _______ _____ _____    ______ ____
ROOT
ATOM      1  CA  GLU A   1       8.618   7.831   6.163  0.00  0.00    +0.134 C 
ENDROOT
BRANCH   1   2
ATOM      2  N   GLU A   1       8.607   6.461   5.643  0.00  0.00    -0.239 NA
ATOM      3  H   GLU A   1       8.690   6.326   4.615  0.00  0.00    +0.142 HD
ENDBRANCH   1   2
BRANCH   1   4
ATOM      4  C   GLU A   1       7.271   8.527   6.019  0.00  0.00    +0.224 C 
ATOM      5  O   GLU A   1       6.555   8.317   5.029  0.00  0.00    -0.287 OA
ENDBRANCH   1   4
BRANCH   1   6
ATOM      6  CB  GLU A   1       9.623   8.663   5.399  0.00  0.00    +0.037 C 
BRANCH   6   7
ATOM      7  CG  GLU A   1      11.030   8.109   5.385  0.00  0.00    +0.116 C 
BRANCH   7   8
ATOM      8  CD  GLU A   1      11.790   8.496   4.136  0.00  0.00    +0.365 C 
ATOM      9  OE2 GLU A   1      13.031   8.353   4.135  0.00  0.00    -0.246 OA
ATOM     10  OE1 GLU A   1      11.146   8.935   3.150  0.00  0.00    -0.246 OA
ENDBRANCH   7   8
ENDBRANCH   6   7
ENDBRANCH   1   6
TORSDOF 5
REMARK  Name = ../refined-set-2016/4z1e/4z1e_pocket.pdb
REMARK  154 active torsions:
REMARK  status: ('A' for Active; 'I' for Inactive)
REMARK    1  A    between atoms: _1  and  _3
REMARK    2  A    between atoms: _3  and  _4
REMARK    3  A    between atoms: _3  and  _6
REMARK    4  A    between atoms: _6  and  _7
REMARK    5  A    between atoms: _17  and  _19
REMARK    6  A    between atoms: _19  and  _20
REMARK    7  A    between atoms: _19  and  _22
REMARK    8  A    between atoms: _22  and  _23
REMARK    9  A    between atoms: _28  and  _29
REMARK   10  A    between atoms: _31  and  _33
REMARK   11  A    between atoms: _33  and  _34
REMARK   12  A    between atoms: _33  and  _36
REMARK   13  A    between atoms: _36  and  _37
REMARK   14  A    between atoms: _40  and  _41
REMARK   15  A    between atoms: _46  and  _48
REMARK   16  A    between atoms: _48  and  _49
REMARK   17  A    between atoms: _48  and  _51
REMARK   18  A    between atoms: _51  and  _52
REMARK   19  A    between atoms: _55  and  _57
REMARK   20  A    between atoms: _57  and  _58
REMARK   21  A    between atoms: _57  and  _60
REMARK   22  A    between atoms: _60  and  _61
REMARK   23  A    between atoms: _66  and  _68
REMARK   24  A    between atoms: _68  and  _69
REMARK   25  A    between atoms: _72  and  _74
REMARK   26  A    between atoms: _74  and  _75
REMARK   27  A    between atoms: _74  and  _77
REMARK   28  A    between atoms: _77  and  _78
REMARK   29  A    between atoms: _83  and  _85
REMARK   30  A    between atoms: _85  and  _86
REMARK   31  A    between atoms: _85  and  _88
REMARK   32  A    between atoms: _88  and  _89
REMARK   33  A    between atoms: _89  and  _90
REMARK   34  A    between atoms: _93  and  _95
REMARK   35  A    between atoms: _95  and  _96
REMARK   36  A    between atoms: _95  and  _98
REMARK   37  A    between atoms: _98  and  _99
REMARK   38  A    between atoms: _102  and  _104
REMARK   39  A    between atoms: _104  and  _105
REMARK   40  A    between atoms: _104  and  _107
REMARK   41  A    between atoms: _107  and  _108
REMARK   42  A    between atoms: _108  and  _109
REMARK   43  A    between atoms: _114  and  _116
REMARK   44  A    between atoms: _116  and  _117
REMARK   45  A    between atoms: _116  and  _119
REMARK   46  A    between atoms: _119  and  _120
REMARK   47  A    between atoms: _126  and  _128
REMARK   48  A    between atoms: _139  and  _142
REMARK   49  A    between atoms: _142  and  _143
REMARK   50  A    between atoms: _151  and  _152
REMARK   51  A    between atoms: _160  and  _162
REMARK   52  A    between atoms: _162  and  _163
REMARK   53  A    between atoms: _162  and  _165
REMARK   54  A    between atoms: _165  and  _166
REMARK   55  A    between atoms: _166  and  _167
REMARK   56  A    between atoms: _170  and  _172
REMARK   57  A    between atoms: _172  and  _173
REMARK   58  A    between atoms: _172  and  _175
REMARK   59  A    between atoms: _175  and  _176
REMARK   60  A    between atoms: _181  and  _183
REMARK   61  A    between atoms: _183  and  _184
REMARK   62  A    between atoms: _183  and  _186
REMARK   63  A    between atoms: _186  and  _187
REMARK   64  A    between atoms: _187  and  _188
REMARK   65  A    between atoms: _191  and  _193
REMARK   66  A    between atoms: _193  and  _194
REMARK   67  A    between atoms: _193  and  _196
REMARK   68  A    between atoms: _196  and  _197
REMARK   69  A    between atoms: _200  and  _202
REMARK   70  A    between atoms: _202  and  _203
REMARK   71  A    between atoms: _202  and  _205
REMARK   72  A    between atoms: _205  and  _206
REMARK   73  A    between atoms: _207  and  ZN_427
REMARK   74  A    between atoms: _211  and  _213
REMARK   75  A    between atoms: _213  and  _214
REMARK   76  A    between atoms: _213  and  _216
REMARK   77  A    between atoms: _216  and  _217
REMARK   78  A    between atoms: _220  and  _222
REMARK   79  A    between atoms: _222  and  _223
REMARK   80  A    between atoms: _222  and  _225
REMARK   81  A    between atoms: _228  and  _230
REMARK   82  A    between atoms: _230  and  _231
REMARK   83  A    between atoms: _230  and  _233
REMARK   84  A    between atoms: _233  and  _234
REMARK   85  A    between atoms: _239  and  _241
REMARK   86  A    between atoms: _241  and  _242
REMARK   87  A    between atoms: _241  and  _244
REMARK   88  A    between atoms: _244  and  _245
REMARK   89  A    between atoms: _251  and  _253
REMARK   90  A    between atoms: _253  and  _254
REMARK   91  A    between atoms: _256  and  _258
REMARK   92  A    between atoms: _258  and  _259
REMARK   93  A    between atoms: _258  and  _261
REMARK   94  A    between atoms: _264  and  _266
REMARK   95  A    between atoms: _266  and  _267
REMARK   96  A    between atoms: _266  and  _269
REMARK   97  A    between atoms: _269  and  _270
REMARK   98  A    between atoms: _273  and  _275
REMARK   99  A    between atoms: _275  and  _276
REMARK  100  A    between atoms: _279  and  _281
REMARK  101  A    between atoms: _281  and  _282
REMARK  102  A    between atoms: _281  and  _284
REMARK  103  A    between atoms: _287  and  _289
REMARK  104  A    between atoms: _289  and  _290
REMARK  105  A    between atoms: _289  and  _292
REMARK  106  A    between atoms: _292  and  _293
REMARK  107  A    between atoms: _296  and  _298
REMARK  108  A    between atoms: _298  and  _299
REMARK  109  A    between atoms: _301  and  _303
REMARK  110  A    between atoms: _303  and  _304
REMARK  111  A    between atoms: _303  and  _306
REMARK  112  A    between atoms: _306  and  _307
REMARK  113  A    between atoms: _309  and  _311
REMARK  114  A    between atoms: _311  and  _312
REMARK  115  A    between atoms: _311  and  _314
REMARK  116  A    between atoms: _314  and  _315
REMARK  117  A    between atoms: _318  and  _320
REMARK  118  A    between atoms: _320  and  _321
REMARK  119  A    between atoms: _320  and  _323
REMARK  120  A    between atoms: _323  and  _324
REMARK  121  A    between atoms: _327  and  _329
REMARK  122  A    between atoms: _329  and  _330
REMARK  123  A    between atoms: _329  and  _332
REMARK  124  A    between atoms: _332  and  _333
REMARK  125  A    between atoms: _337  and  _338
REMARK  126  A    between atoms: _344  and  _345
REMARK  127  A    between atoms: _350  and  _352
REMARK  128  A    between atoms: _352  and  _353
REMARK  129  A    between atoms: _352  and  _355
REMARK  130  A    between atoms: _355  and  _356
REMARK  131  A    between atoms: _359  and  _361
REMARK  132  A    between atoms: _361  and  _362
REMARK  133  A    between atoms: _361  and  _364
REMARK  134  A    between atoms: _364  and  _365
REMARK  135  A    between atoms: _368  and  _370
REMARK  136  A    between atoms: _370  and  _371
REMARK  137  A    between atoms: _370  and  _373
REMARK  138  A    between atoms: _375  and  _377
REMARK  139  A    between atoms: _377  and  _378
REMARK  140  A    between atoms: _377  and  _380
REMARK  141  A    between atoms: _383  and  _385
REMARK  142  A    between atoms: _385  and  _386
REMARK  143  A    between atoms: _385  and  _388
REMARK  144  A    between atoms: _388  and  _389
REMARK  145  A    between atoms: _399  and  _401
REMARK  146  A    between atoms: _401  and  _402
REMARK  147  A    between atoms: _401  and  _404
REMARK  148  A    between atoms: _404  and  _405
REMARK  149  A    between atoms: _410  and  _412
REMARK  150  A    between atoms: _412  and  _413
REMARK  151  A    between atoms: _412  and  _415
REMARK  152  A    between atoms: _415  and  _416
REMARK  153  A    between atoms: _416  and  _417
REMARK  154  A    between atoms: _417  and  _418
REMARK                            x       y       z     vdW  Elec       q    Type
REMARK                         _______ _______ _______ _____ _____    ______ ____
ROOT
ATOM      1  C   UNK A   4      10.994   0.147  10.322  0.00  0.00    +0.000 C 
ATOM      2  C   UNK A   4      10.878  -1.113  11.156  0.00  0.00    +0.000 C 
ATOM      3  O   UNK A   4      10.193  -1.173  12.208  0.00  0.00    +0.000 OA
ATOM      4  N   VAL A   5      11.534  -2.140  10.675  0.00  0.00    +0.000 N 
ATOM      5  CA  VAL A   5      11.541  -3.426  11.338  0.00  0.00    +0.000 C 
ATOM      6  C   VAL A   5      12.970  -3.920  11.514  0.00  0.00    +0.000 C 
ATOM      7  N   UNK A   6      13.110  -4.850  12.450  0.00  0.00    +0.000 N 
ATOM      8  H   UNK A   6      12.300  -5.043  13.073  0.00  0.00    +0.000 HD
ATOM      9  C   UNK A   6      14.323  -5.611  12.655  0.00  0.00    +0.000 C 
ATOM     10  C   UNK A   6      14.934  -5.350  14.020  0.00  0.00    +0.000 C 
ATOM     11  C   UNK A   6      15.229  -3.883  14.309  0.00  0.00    +0.000 A 
ATOM     12  C   UNK A   6      14.430  -2.880  14.839  0.00  0.00    +0.000 A 
ATOM     13  N   UNK A   6      15.187  -1.731  14.887  0.00  0.00    +0.000 N 
ATOM     14 ZN   UNK A   6      14.459  -0.001  15.371  0.00  0.00    +0.000 Zn
ATOM     15  N   UNK A   4      13.807   0.822  13.808  0.00  0.00    +0.000 N 
ATOM     16  C   UNK A   4      13.296   2.057  13.590  0.00  0.00    +0.000 A 
ATOM     17  N   UNK A   4      12.811   2.099  12.328  0.00  0.00    +0.000 NA
ATOM     18  C   UNK A   4      13.004   0.917  11.722  0.00  0.00    +0.000 A 
ATOM     19  C   UNK A   4      13.617   0.086  12.666  0.00  0.00    +0.000 A 
ATOM     20  C   UNK A   6      16.430  -2.019  14.407  0.00  0.00    +0.000 A 
ATOM     21  N   UNK A   6      16.448  -3.312  14.035  0.00  0.00    +0.000 NA
ATOM     22  O   VAL A   5      13.930  -3.460  10.834  0.00  0.00    +0.000 OA
ATOM     23  H   VAL A   5      12.066  -2.027   9.789  0.00  0.00    +0.000 HD
ATOM     24  C   UNK A   4      12.461   0.640  10.313  0.00  0.00    +0.000 C 
ENDROOT
BRANCH  14  25
ATOM     25  N   UNK A   6      13.034  -0.594  16.529  0.00  0.00    +0.000 N 
ATOM     26  C   UNK A   6      13.389  -1.539  17.426  0.00  0.00    +0.000 A 
ATOM     27  N   UNK A   6      12.277  -1.994  18.052  0.00  0.00    +0.000 NA
ATOM     28  C   UNK A   6      11.204  -1.353  17.569  0.00  0.00    +0.000 A 
ATOM     29  C   UNK A   6      11.640  -0.462  16.592  0.00  0.00    +0.000 A 
BRANCH  29  30
ATOM     30  C   UNK A   6      10.863   0.510  15.712  0.00  0.00    +0.000 C 
BRANCH  30  31
ATOM     31  C   UNK A   6       9.369   0.215  15.578  0.00  0.00    +0.000 C 
BRANCH  31  32
ATOM     32  C   UNK A   6       8.711   1.385  14.881  0.00  0.00    +0.000 C 
ATOM     33  N   UNK A   4       7.760   1.988  15.569  0.00  0.00    +0.000 N 
ATOM     34  H   UNK A   4       7.461   1.579  16.477  0.00  0.00    +0.000 HD
ATOM     35  O   UNK A   6       9.086   1.750  13.740  0.00  0.00    +0.000 OA
BRANCH  33  36
ATOM     36  C   UNK A   4       7.113   3.209  15.100  0.00  0.00    +0.000 C 
BRANCH  36  37
ATOM     37  C   UNK A   4       7.743   4.373  15.912  0.00  0.00    +0.000 C 
ATOM     38  O   UNK A   4       7.607   4.453  17.157  0.00  0.00    +0.000 OA
ATOM     39  N   VAL A   5       8.453   5.232  15.199  0.00  0.00    +0.000 N 
ATOM     40  H   VAL A   5       8.398   5.184  14.162  0.00  0.00    +0.000 HD
BRANCH  39  41
ATOM     41  CA  VAL A   5       9.310   6.243  15.808  0.00  0.00    +0.000 C 
BRANCH  41  42
ATOM     42  C   VAL A   5       8.611   7.635  15.828  0.00  0.00    +0.000 C 
ATOM     43  N   UNK A   6       8.526   8.228  17.016  0.00  0.00    +0.000 N 
ATOM     44  H   UNK A   6       8.970   7.768  17.837  0.00  0.00    +0.000 HD
ATOM     45  O   VAL A   5       8.202   8.154  14.773  0.00  0.00    +0.000 OA
BRANCH  43  46
ATOM     46  C   UNK A   6       7.827   9.512  17.215  0.00  0.00    +0.000 C 
BRANCH  46  47
ATOM     47  C   UNK A   6       8.723  10.494  17.944  0.00  0.00    +0.000 C 
ATOM     48  O   UNK A   6       9.479  10.092  18.840  0.00  0.00    +0.000 OA
ENDBRANCH  46  47
BRANCH  46  49
ATOM     49  C   UNK A   6       6.535   9.352  18.006  0.00  0.00    +0.000 C 
BRANCH  49  50
ATOM     50  C   UNK A   6       5.666   8.173  17.607  0.00  0.00    +0.000 A 
ATOM     51  N   UNK A   6       6.014   6.889  17.843  0.00  0.00    +0.000 NA
ATOM     52  C   UNK A   6       4.999   6.066  17.385  0.00  0.00    +0.000 A 
ATOM     53  N   UNK A   6       4.013   6.833  16.910  0.00  0.00    +0.000 NA
ATOM     54  C   UNK A   6       4.381   8.135  17.024  0.00  0.00    +0.000 A 
ENDBRANCH  49  50
ENDBRANCH  46  49
ENDBRANCH  43  46
ENDBRANCH  41  42
BRANCH  41  55
ATOM     55  CB  VAL A   5      10.659   6.353  15.051  0.00  0.00    +0.000 C 
ATOM     56  CG2 VAL A   5      11.615   7.238  15.840  0.00  0.00    +0.000 C 
ATOM     57  CG1 VAL A   5      11.277   4.977  14.833  0.00  0.00    +0.000 C 
ENDBRANCH  41  55
ENDBRANCH  39  41
ENDBRANCH  36  37
BRANCH  36  58
ATOM     58  C   UNK A   4       5.580   3.105  15.261  0.00  0.00    +0.000 C 
BRANCH  58  59
ATOM     59  C   UNK A   4       4.832   2.055  14.351  0.00  0.00    +0.000 C 
ATOM     60  C   UNK A   4       4.000   1.108  15.183  0.00  0.00    +0.000 C 
ATOM     61  C   UNK A   4       3.914   2.687  13.297  0.00  0.00    +0.000 C 
ENDBRANCH  58  59
ENDBRANCH  36  58
ENDBRANCH  33  36
ENDBRANCH  31  32
BRANCH  31  62
ATOM     62  N   UNK A   6       9.129  -0.979  14.789  0.00  0.00    +0.000 N 
ATOM     63  C   LEU A   2       8.559  -2.071  15.296  0.00  0.00    +0.000 C 
ATOM     64  O   LEU A   2       8.187  -2.148  16.445  0.00  0.00    +0.000 OA
ATOM     65  H   UNK A   6       9.413  -0.982  13.789  0.00  0.00    +0.000 HD
BRANCH  63  66
ATOM     66  CA  LEU A   2       8.355  -3.251  14.324  0.00  0.00    +0.000 C 
BRANCH  66  67
ATOM     67  N   LEU A   2       8.726  -4.505  14.965  0.00  0.00    +0.000 N 
ATOM     68  H   LEU A   2       8.012  -4.969  15.562  0.00  0.00    +0.000 HD
ATOM     69  C   GLU A   1       9.907  -5.102  14.846  0.00  0.00    +0.000 C 
ATOM     70  O   GLU A   1      10.805  -4.716  14.101  0.00  0.00    +0.000 OA
BRANCH  69  71
ATOM     71  CA  GLU A   1      10.097  -6.354  15.724  0.00  0.00    +0.000 C 
BRANCH  71  72
ATOM     72  N   GLU A   1      10.602  -7.427  14.878  0.00  0.00    +0.000 NA
ATOM     73  H   GLU A   1      11.264  -7.186  14.113  0.00  0.00    +0.000 HD
ENDBRANCH  71  72
BRANCH  71  74
ATOM     74  CB  GLU A   1      11.025  -6.100  16.931  0.00  0.00    +0.000 C 
BRANCH  74  75
ATOM     75  CG  GLU A   1      10.519  -5.096  17.963  0.00  0.00    +0.000 C 
BRANCH  75  76
ATOM     76  CD  GLU A   1      11.419  -4.992  19.202  0.00  0.00    +0.000 C 
ATOM     77  OE2 GLU A   1      11.458  -3.904  19.835  0.00  0.00    +0.000 OA
ATOM     78  OE1 GLU A   1      12.110  -5.960  19.545  0.00  0.00    +0.000 OA
ENDBRANCH  75  76
ENDBRANCH  74  75
ENDBRANCH  71  74
ENDBRANCH  69  71
ENDBRANCH  66  67
BRANCH  66  79
ATOM     79  CB  LEU A   2       6.879  -3.291  13.904  0.00  0.00    +0.000 C 
BRANCH  79  80
ATOM     80  CG  LEU A   2       6.038  -2.053  13.509  0.00  0.00    +0.000 C 
ATOM     81  CD2 LEU A   2       4.600  -2.531  13.240  0.00  0.00    +0.000 C 
ATOM     82  CD1 LEU A   2       6.598  -1.341  12.297  0.00  0.00    +0.000 C 
ENDBRANCH  79  80
ENDBRANCH  66  79
ENDBRANCH  63  66
ENDBRANCH  31  62
ENDBRANCH  30  31
ENDBRANCH  29  30
ENDBRANCH  14  25
BRANCH   1  84
ATOM     83  C   UNK A   3       9.570   2.131  10.186  0.00  0.00    +0.000 C 
ATOM     84  N   UNK A   4      10.115   1.140  10.894  0.00  0.00    +0.000 N 
ATOM     85  H   UNK A   4       9.896   1.080  11.909  0.00  0.00    +0.000 HD
ATOM     86  O   UNK A   3       9.841   2.339   9.018  0.00  0.00    +0.000 OA
BRANCH  83  87
ATOM     87  C   UNK A   3       8.598   3.039  10.951  0.00  0.00    +0.000 C 
BRANCH  87  90
ATOM     88  C   LEU A   2       8.761   5.483  11.109  0.00  0.00    +0.000 C 
ATOM     89  O   LEU A   2       8.577   5.528  12.326  0.00  0.00    +0.000 OA
ATOM     90  N   UNK A   3       8.553   4.383  10.371  0.00  0.00    +0.000 N 
ATOM     91  H   UNK A   3       8.354   4.487   9.356  0.00  0.00    +0.000 HD
BRANCH  88  92
ATOM     92  CA  LEU A   2       9.077   6.761  10.336  0.00  0.00    +0.000 C 
BRANCH  92  94
ATOM     93  C   GLU A   1       8.554   9.113  10.621  0.00  0.00    +0.000 C 
ATOM     94  N   LEU A   2       8.824   7.932  11.160  0.00  0.00    +0.000 N 
ATOM     95  H   LEU A   2       8.856   7.841  12.196  0.00  0.00    +0.000 HD
ATOM     96  O   GLU A   1       8.530   9.306   9.406  0.00  0.00    +0.000 OA
BRANCH  93  97
ATOM     97  CA  GLU A   1       8.262  10.259  11.567  0.00  0.00    +0.000 C 
BRANCH  97  98
ATOM     98  CB  GLU A   1       9.576  10.922  12.107  0.00  0.00    +0.000 C 
ATOM     99  CG2 GLU A   1      10.228  10.128  13.232  0.00  0.00    +0.000 C 
BRANCH  98 100
ATOM    100  CG1 GLU A   1      10.545  11.252  10.955  0.00  0.00    +0.000 C 
ATOM    101  CD1 GLU A   1      11.670  12.206  11.370  0.00  0.00    +0.000 C 
ENDBRANCH  98 100
ENDBRANCH  97  98
BRANCH  97 102
ATOM    102  N   GLU A   1       7.294   9.894  12.624  0.00  0.00    +0.000 NA
ATOM    103  H   GLU A   1       7.595   9.216  13.353  0.00  0.00    +0.000 HD
ENDBRANCH  97 102
ENDBRANCH  93  97
ENDBRANCH  92  94
BRANCH  92 104
ATOM    104  CB  LEU A   2      10.510   6.766   9.834  0.00  0.00    +0.000 C 
BRANCH 104 105
ATOM    105  CG  LEU A   2      11.592   6.815  10.965  0.00  0.00    +0.000 C 
BRANCH 105 106
ATOM    106  CD  LEU A   2      12.303   5.492  11.219  0.00  0.00    +0.000 C 
ATOM    107  NE2 LEU A   2      13.548   5.582  11.656  0.00  0.00    +0.000 N 
ATOM    108 HE21 LEU A   2      14.083   4.720  11.884  0.00  0.00    +0.000 HD
ATOM    109 HE22 LEU A   2      13.993   6.515  11.771  0.00  0.00    +0.000 HD
ATOM    110  OE1 LEU A   2      11.735   4.406  11.067  0.00  0.00    +0.000 OA
ENDBRANCH 105 106
ENDBRANCH 104 105
ENDBRANCH  92 104
ENDBRANCH  88  92
ENDBRANCH  87  90
BRANCH  87 111
ATOM    111  C   UNK A   3       7.192   2.409  11.180  0.00  0.00    +0.000 C 
BRANCH 111 112
ATOM    112  C   UNK A   3       6.499   1.889   9.929  0.00  0.00    +0.000 A 
ATOM    113  C   UNK A   3       5.362   2.531   9.445  0.00  0.00    +0.000 A 
ATOM    114  C   UNK A   3       4.713   2.061   8.321  0.00  0.00    +0.000 A 
ATOM    115  C   UNK A   3       5.167   0.925   7.681  0.00  0.00    +0.000 A 
ATOM    116  C   UNK A   3       6.280   0.256   8.150  0.00  0.00    +0.000 A 
ATOM    117  C   UNK A   3       6.935   0.729   9.277  0.00  0.00    +0.000 A 
ENDBRANCH 111 112
ENDBRANCH  87 111
ENDBRANCH  83  87
ENDBRANCH   1  84
BRANCH   9 118
ATOM    118  C   UNK A   6      13.901  -7.081  12.574  0.00  0.00    +0.000 C 
ATOM    119  O   UNK A   6      12.866  -7.439  13.152  0.00  0.00    +0.000 OA
ENDBRANCH   9 118
BRANCH   5 120
ATOM    120  CB  VAL A   5      10.803  -4.489  10.503  0.00  0.00    +0.000 C 
BRANCH 120 121
ATOM    121  CG  VAL A   5       9.374  -4.187  10.188  0.00  0.00    +0.000 A 
ATOM    122  CD2 VAL A   5       8.341  -4.823  10.880  0.00  0.00    +0.000 A 
ATOM    123  CE2 VAL A   5       7.017  -4.627  10.517  0.00  0.00    +0.000 A 
ATOM    124  CZ  VAL A   5       6.709  -3.785   9.450  0.00  0.00    +0.000 A 
ATOM    125  CE1 VAL A   5       7.718  -3.152   8.753  0.00  0.00    +0.000 A 
ATOM    126  CD1 VAL A   5       9.047  -3.362   9.107  0.00  0.00    +0.000 A 
ENDBRANCH 120 121
ENDBRANCH   5 120
TORSDOF 42
REMARK  Name = ../refined-set-2016/4z1e/4z1e_pocket.pdb
REMARK  154 active torsions:
REMARK  status: ('A' for Active; 'I' for Inactive)
REMARK    1  A    between atoms: _1  and  _3
REMARK    2  A    between atoms: _3  and  _4
REMARK    3  A    between atoms: _3  and  _6
REMARK    4  A    between atoms: _6  and  _7
REMARK    5  A    between atoms: _17  and  _19
REMARK    6  A    between atoms: _19  and  _20
REMARK    7  A    between atoms: _19  and  _22
REMARK    8  A    between atoms: _22  and  _23
REMARK    9  A    between atoms: _28  and  _29
REMARK   10  A    between atoms: _31  and  _33
REMARK   11  A    between atoms: _33  and  _34
REMARK   12  A    between atoms: _33  and  _36
REMARK   13  A    between atoms: _36  and  _37
REMARK   14  A    between atoms: _40  and  _41
REMARK   15  A    between atoms: _46  and  _48
REMARK   16  A    between atoms: _48  and  _49
REMARK   17  A    between atoms: _48  and  _51
REMARK   18  A    between atoms: _51  and  _52
REMARK   19  A    between atoms: _55  and  _57
REMARK   20  A    between atoms: _57  and  _58
REMARK   21  A    between atoms: _57  and  _60
REMARK   22  A    between atoms: _60  and  _61
REMARK   23  A    between atoms: _66  and  _68
REMARK   24  A    between atoms: _68  and  _69
REMARK   25  A    between atoms: _72  and  _74
REMARK   26  A    between atoms: _74  and  _75
REMARK   27  A    between atoms: _74  and  _77
REMARK   28  A    between atoms: _77  and  _78
REMARK   29  A    between atoms: _83  and  _85
REMARK   30  A    between atoms: _85  and  _86
REMARK   31  A    between atoms: _85  and  _88
REMARK   32  A    between atoms: _88  and  _89
REMARK   33  A    between atoms: _89  and  _90
REMARK   34  A    between atoms: _93  and  _95
REMARK   35  A    between atoms: _95  and  _96
REMARK   36  A    between atoms: _95  and  _98
REMARK   37  A    between atoms: _98  and  _99
REMARK   38  A    between atoms: _102  and  _104
REMARK   39  A    between atoms: _104  and  _105
REMARK   40  A    between atoms: _104  and  _107
REMARK   41  A    between atoms: _107  and  _108
REMARK   42  A    between atoms: _108  and  _109
REMARK   43  A    between atoms: _114  and  _116
REMARK   44  A    between atoms: _116  and  _117
REMARK   45  A    between atoms: _116  and  _119
REMARK   46  A    between atoms: _119  and  _120
REMARK   47  A    between atoms: _126  and  _128
REMARK   48  A    between atoms: _139  and  _142
REMARK   49  A    between atoms: _142  and  _143
REMARK   50  A    between atoms: _151  and  _152
REMARK   51  A    between atoms: _160  and  _162
REMARK   52  A    between atoms: _162  and  _163
REMARK   53  A    between atoms: _162  and  _165
REMARK   54  A    between atoms: _165  and  _166
REMARK   55  A    between atoms: _166  and  _167
REMARK   56  A    between atoms: _170  and  _172
REMARK   57  A    between atoms: _172  and  _173
REMARK   58  A    between atoms: _172  and  _175
REMARK   59  A    between atoms: _175  and  _176
REMARK   60  A    between atoms: _181  and  _183
REMARK   61  A    between atoms: _183  and  _184
REMARK   62  A    between atoms: _183  and  _186
REMARK   63  A    between atoms: _186  and  _187
REMARK   64  A    between atoms: _187  and  _188
REMARK   65  A    between atoms: _191  and  _193
REMARK   66  A    between atoms: _193  and  _194
REMARK   67  A    between atoms: _193  and  _196
REMARK   68  A    between atoms: _196  and  _197
REMARK   69  A    between atoms: _200  and  _202
REMARK   70  A    between atoms: _202  and  _203
REMARK   71  A    between atoms: _202  and  _205
REMARK   72  A    between atoms: _205  and  _206
REMARK   73  A    between atoms: _207  and  ZN_427
REMARK   74  A    between atoms: _211  and  _213
REMARK   75  A    between atoms: _213  and  _214
REMARK   76  A    between atoms: _213  and  _216
REMARK   77  A    between atoms: _216  and  _217
REMARK   78  A    between atoms: _220  and  _222
REMARK   79  A    between atoms: _222  and  _223
REMARK   80  A    between atoms: _222  and  _225
REMARK   81  A    between atoms: _228  and  _230
REMARK   82  A    between atoms: _230  and  _231
REMARK   83  A    between atoms: _230  and  _233
REMARK   84  A    between atoms: _233  and  _234
REMARK   85  A    between atoms: _239  and  _241
REMARK   86  A    between atoms: _241  and  _242
REMARK   87  A    between atoms: _241  and  _244
REMARK   88  A    between atoms: _244  and  _245
REMARK   89  A    between atoms: _251  and  _253
REMARK   90  A    between atoms: _253  and  _254
REMARK   91  A    between atoms: _256  and  _258
REMARK   92  A    between atoms: _258  and  _259
REMARK   93  A    between atoms: _258  and  _261
REMARK   94  A    between atoms: _264  and  _266
REMARK   95  A    between atoms: _266  and  _267
REMARK   96  A    between atoms: _266  and  _269
REMARK   97  A    between atoms: _269  and  _270
REMARK   98  A    between atoms: _273  and  _275
REMARK   99  A    between atoms: _275  and  _276
REMARK  100  A    between atoms: _279  and  _281
REMARK  101  A    between atoms: _281  and  _282
REMARK  102  A    between atoms: _281  and  _284
REMARK  103  A    between atoms: _287  and  _289
REMARK  104  A    between atoms: _289  and  _290
REMARK  105  A    between atoms: _289  and  _292
REMARK  106  A    between atoms: _292  and  _293
REMARK  107  A    between atoms: _296  and  _298
REMARK  108  A    between atoms: _298  and  _299
REMARK  109  A    between atoms: _301  and  _303
REMARK  110  A    between atoms: _303  and  _304
REMARK  111  A    between atoms: _303  and  _306
REMARK  112  A    between atoms: _306  and  _307
REMARK  113  A    between atoms: _309  and  _311
REMARK  114  A    between atoms: _311  and  _312
REMARK  115  A    between atoms: _311  and  _314
REMARK  116  A    between atoms: _314  and  _315
REMARK  117  A    between atoms: _318  and  _320
REMARK  118  A    between atoms: _320  and  _321
REMARK  119  A    between atoms: _320  and  _323
REMARK  120  A    between atoms: _323  and  _324
REMARK  121  A    between atoms: _327  and  _329
REMARK  122  A    between atoms: _329  and  _330
REMARK  123  A    between atoms: _329  and  _332
REMARK  124  A    between atoms: _332  and  _333
REMARK  125  A    between atoms: _337  and  _338
REMARK  126  A    between atoms: _344  and  _345
REMARK  127  A    between atoms: _350  and  _352
REMARK  128  A    between atoms: _352  and  _353
REMARK  129  A    between atoms: _352  and  _355
REMARK  130  A    between atoms: _355  and  _356
REMARK  131  A    between atoms: _359  and  _361
REMARK  132  A    between atoms: _361  and  _362
REMARK  133  A    between atoms: _361  and  _364
REMARK  134  A    between atoms: _364  and  _365
REMARK  135  A    between atoms: _368  and  _370
REMARK  136  A    between atoms: _370  and  _371
REMARK  137  A    between atoms: _370  and  _373
REMARK  138  A    between atoms: _375  and  _377
REMARK  139  A    between atoms: _377  and  _378
REMARK  140  A    between atoms: _377  and  _380
REMARK  141  A    between atoms: _383  and  _385
REMARK  142  A    between atoms: _385  and  _386
REMARK  143  A    between atoms: _385  and  _388
REMARK  144  A    between atoms: _388  and  _389
REMARK  145  A    between atoms: _399  and  _401
REMARK  146  A    between atoms: _401  and  _402
REMARK  147  A    between atoms: _401  and  _404
REMARK  148  A    between atoms: _404  and  _405
REMARK  149  A    between atoms: _410  and  _412
REMARK  150  A    between atoms: _412  and  _413
REMARK  151  A    between atoms: _412  and  _415
REMARK  152  A    between atoms: _415  and  _416
REMARK  153  A    between atoms: _416  and  _417
REMARK  154  A    between atoms: _417  and  _418
REMARK                            x       y       z     vdW  Elec       q    Type
REMARK                         _______ _______ _______ _____ _____    ______ ____
ROOT
ATOM      1  C   GLU A   1      15.287  -6.831  21.145  0.00  0.00    +0.238 C 
ATOM      2  O   GLU A   1      16.078  -7.393  21.876  0.00  0.00    -0.274 OA
ATOM      3  N   HIS A   2      14.124  -6.382  21.578  0.00  0.00    -0.298 N 
ATOM      4  H   HIS A   2      13.564  -5.751  20.970  0.00  0.00    +0.150 HD
ENDROOT
BRANCH   1   5
ATOM      5  CA  GLU A   1      15.573  -6.644  19.642  0.00  0.00    +0.145 C 
BRANCH   5   6
ATOM      6  N   GLU A   1      14.568  -7.341  18.834  0.00  0.00    -0.238 NA
ATOM      7  H   GLU A   1      13.711  -6.818  18.563  0.00  0.00    +0.142 HD
ENDBRANCH   5   6
BRANCH   5   8
ATOM      8  CB  GLU A   1      15.587  -5.166  19.227  0.00  0.00    +0.038 C 
BRANCH   8   9
ATOM      9  CG  GLU A   1      16.044  -5.021  17.767  0.00  0.00    +0.116 C 
BRANCH   9  10
ATOM     10  CD  GLU A   1      16.791  -3.723  17.499  0.00  0.00    +0.365 C 
ATOM     11  OE2 GLU A   1      16.194  -2.655  17.735  0.00  0.00    -0.246 OA
ATOM     12  OE1 GLU A   1      17.957  -3.790  17.073  0.00  0.00    -0.246 OA
ENDBRANCH   9  10
ENDBRANCH   8   9
ENDBRANCH   5   8
ENDBRANCH   1   5
BRANCH   3  13
ATOM     13  CA  HIS A   2      13.610  -6.750  22.883  0.00  0.00    +0.143 C 
BRANCH  13  14
ATOM     14  C   HIS A   2      13.302  -8.208  22.919  0.00  0.00    +0.227 C 
ATOM     15  O   HIS A   2      12.934  -8.848  21.895  0.00  0.00    -0.286 OA
ENDBRANCH  13  14
BRANCH  13  16
ATOM     16  CB  HIS A   2      12.386  -5.922  23.209  0.00  0.00    +0.075 C 
BRANCH  16  17
ATOM     17  CG  HIS A   2      12.690  -4.478  23.376  0.00  0.00    +0.082 A 
ATOM     18  CD2 HIS A   2      13.221  -3.780  24.461  0.00  0.00    +0.115 A 
ATOM     19  NE2 HIS A   2      13.359  -2.499  24.086  0.00  0.00    -0.221 NA
ATOM     20  CE1 HIS A   2      12.961  -2.376  22.803  0.00  0.00    +0.199 A 
ATOM     21  ND1 HIS A   2      12.565  -3.585  22.370  0.00  0.00    -0.227 NA
ENDBRANCH  16  17
ENDBRANCH  13  16
ENDBRANCH   3  13
TORSDOF 9
REMARK  Name = ../refined-set-2016/4z1e/4z1e_pocket.pdb
REMARK  154 active torsions:
REMARK  status: ('A' for Active; 'I' for Inactive)
REMARK    1  A    between atoms: _1  and  _3
REMARK    2  A    between atoms: _3  and  _4
REMARK    3  A    between atoms: _3  and  _6
REMARK    4  A    between atoms: _6  and  _7
REMARK    5  A    between atoms: _17  and  _19
REMARK    6  A    between atoms: _19  and  _20
REMARK    7  A    between atoms: _19  and  _22
REMARK    8  A    between atoms: _22  and  _23
REMARK    9  A    between atoms: _28  and  _29
REMARK   10  A    between atoms: _31  and  _33
REMARK   11  A    between atoms: _33  and  _34
REMARK   12  A    between atoms: _33  and  _36
REMARK   13  A    between atoms: _36  and  _37
REMARK   14  A    between atoms: _40  and  _41
REMARK   15  A    between atoms: _46  and  _48
REMARK   16  A    between atoms: _48  and  _49
REMARK   17  A    between atoms: _48  and  _51
REMARK   18  A    between atoms: _51  and  _52
REMARK   19  A    between atoms: _55  and  _57
REMARK   20  A    between atoms: _57  and  _58
REMARK   21  A    between atoms: _57  and  _60
REMARK   22  A    between atoms: _60  and  _61
REMARK   23  A    between atoms: _66  and  _68
REMARK   24  A    between atoms: _68  and  _69
REMARK   25  A    between atoms: _72  and  _74
REMARK   26  A    between atoms: _74  and  _75
REMARK   27  A    between atoms: _74  and  _77
REMARK   28  A    between atoms: _77  and  _78
REMARK   29  A    between atoms: _83  and  _85
REMARK   30  A    between atoms: _85  and  _86
REMARK   31  A    between atoms: _85  and  _88
REMARK   32  A    between atoms: _88  and  _89
REMARK   33  A    between atoms: _89  and  _90
REMARK   34  A    between atoms: _93  and  _95
REMARK   35  A    between atoms: _95  and  _96
REMARK   36  A    between atoms: _95  and  _98
REMARK   37  A    between atoms: _98  and  _99
REMARK   38  A    between atoms: _102  and  _104
REMARK   39  A    between atoms: _104  and  _105
REMARK   40  A    between atoms: _104  and  _107
REMARK   41  A    between atoms: _107  and  _108
REMARK   42  A    between atoms: _108  and  _109
REMARK   43  A    between atoms: _114  and  _116
REMARK   44  A    between atoms: _116  and  _117
REMARK   45  A    between atoms: _116  and  _119
REMARK   46  A    between atoms: _119  and  _120
REMARK   47  A    between atoms: _126  and  _128
REMARK   48  A    between atoms: _139  and  _142
REMARK   49  A    between atoms: _142  and  _143
REMARK   50  A    between atoms: _151  and  _152
REMARK   51  A    between atoms: _160  and  _162
REMARK   52  A    between atoms: _162  and  _163
REMARK   53  A    between atoms: _162  and  _165
REMARK   54  A    between atoms: _165  and  _166
REMARK   55  A    between atoms: _166  and  _167
REMARK   56  A    between atoms: _170  and  _172
REMARK   57  A    between atoms: _172  and  _173
REMARK   58  A    between atoms: _172  and  _175
REMARK   59  A    between atoms: _175  and  _176
REMARK   60  A    between atoms: _181  and  _183
REMARK   61  A    between atoms: _183  and  _184
REMARK   62  A    between atoms: _183  and  _186
REMARK   63  A    between atoms: _186  and  _187
REMARK   64  A    between atoms: _187  and  _188
REMARK   65  A    between atoms: _191  and  _193
REMARK   66  A    between atoms: _193  and  _194
REMARK   67  A    between atoms: _193  and  _196
REMARK   68  A    between atoms: _196  and  _197
REMARK   69  A    between atoms: _200  and  _202
REMARK   70  A    between atoms: _202  and  _203
REMARK   71  A    between atoms: _202  and  _205
REMARK   72  A    between atoms: _205  and  _206
REMARK   73  A    between atoms: _207  and  ZN_427
REMARK   74  A    between atoms: _211  and  _213
REMARK   75  A    between atoms: _213  and  _214
REMARK   76  A    between atoms: _213  and  _216
REMARK   77  A    between atoms: _216  and  _217
REMARK   78  A    between atoms: _220  and  _222
REMARK   79  A    between atoms: _222  and  _223
REMARK   80  A    between atoms: _222  and  _225
REMARK   81  A    between atoms: _228  and  _230
REMARK   82  A    between atoms: _230  and  _231
REMARK   83  A    between atoms: _230  and  _233
REMARK   84  A    between atoms: _233  and  _234
REMARK   85  A    between atoms: _239  and  _241
REMARK   86  A    between atoms: _241  and  _242
REMARK   87  A    between atoms: _241  and  _244
REMARK   88  A    between atoms: _244  and  _245
REMARK   89  A    between atoms: _251  and  _253
REMARK   90  A    between atoms: _253  and  _254
REMARK   91  A    between atoms: _256  and  _258
REMARK   92  A    between atoms: _258  and  _259
REMARK   93  A    between atoms: _258  and  _261
REMARK   94  A    between atoms: _264  and  _266
REMARK   95  A    between atoms: _266  and  _267
REMARK   96  A    between atoms: _266  and  _269
REMARK   97  A    between atoms: _269  and  _270
REMARK   98  A    between atoms: _273  and  _275
REMARK   99  A    between atoms: _275  and  _276
REMARK  100  A    between atoms: _279  and  _281
REMARK  101  A    between atoms: _281  and  _282
REMARK  102  A    between atoms: _281  and  _284
REMARK  103  A    between atoms: _287  and  _289
REMARK  104  A    between atoms: _289  and  _290
REMARK  105  A    between atoms: _289  and  _292
REMARK  106  A    between atoms: _292  and  _293
REMARK  107  A    between atoms: _296  and  _298
REMARK  108  A    between atoms: _298  and  _299
REMARK  109  A    between atoms: _301  and  _303
REMARK  110  A    between atoms: _303  and  _304
REMARK  111  A    between atoms: _303  and  _306
REMARK  112  A    between atoms: _306  and  _307
REMARK  113  A    between atoms: _309  and  _311
REMARK  114  A    between atoms: _311  and  _312
REMARK  115  A    between atoms: _311  and  _314
REMARK  116  A    between atoms: _314  and  _315
REMARK  117  A    between atoms: _318  and  _320
REMARK  118  A    between atoms: _320  and  _321
REMARK  119  A    between atoms: _320  and  _323
REMARK  120  A    between atoms: _323  and  _324
REMARK  121  A    between atoms: _327  and  _329
REMARK  122  A    between atoms: _329  and  _330
REMARK  123  A    between atoms: _329  and  _332
REMARK  124  A    between atoms: _332  and  _333
REMARK  125  A    between atoms: _337  and  _338
REMARK  126  A    between atoms: _344  and  _345
REMARK  127  A    between atoms: _350  and  _352
REMARK  128  A    between atoms: _352  and  _353
REMARK  129  A    between atoms: _352  and  _355
REMARK  130  A    between atoms: _355  and  _356
REMARK  131  A    between atoms: _359  and  _361
REMARK  132  A    between atoms: _361  and  _362
REMARK  133  A    between atoms: _361  and  _364
REMARK  134  A    between atoms: _364  and  _365
REMARK  135  A    between atoms: _368  and  _370
REMARK  136  A    between atoms: _370  and  _371
REMARK  137  A    between atoms: _370  and  _373
REMARK  138  A    between atoms: _375  and  _377
REMARK  139  A    between atoms: _377  and  _378
REMARK  140  A    between atoms: _377  and  _380
REMARK  141  A    between atoms: _383  and  _385
REMARK  142  A    between atoms: _385  and  _386
REMARK  143  A    between atoms: _385  and  _388
REMARK  144  A    between atoms: _388  and  _389
REMARK  145  A    between atoms: _399  and  _401
REMARK  146  A    between atoms: _401  and  _402
REMARK  147  A    between atoms: _401  and  _404
REMARK  148  A    between atoms: _404  and  _405
REMARK  149  A    between atoms: _410  and  _412
REMARK  150  A    between atoms: _412  and  _413
REMARK  151  A    between atoms: _412  and  _415
REMARK  152  A    between atoms: _415  and  _416
REMARK  153  A    between atoms: _416  and  _417
REMARK  154  A    between atoms: _417  and  _418
REMARK                            x       y       z     vdW  Elec       q    Type
REMARK                         _______ _______ _______ _____ _____    ______ ____
ROOT
ATOM      1  CA  PHE A   1      13.538  15.444  15.094  0.00  0.00    +0.149 C 
ENDROOT
BRANCH   1   2
ATOM      2  C   PHE A   1      14.976  15.552  15.589  0.00  0.00    +0.239 C 
ATOM      3  O   PHE A   1      15.310  14.958  16.622  0.00  0.00    -0.274 OA
ATOM      4  N   GLY A   2      15.826  16.257  14.821  0.00  0.00    -0.297 N 
ATOM      5  H   GLY A   2      15.462  16.723  13.965  0.00  0.00    +0.150 HD
BRANCH   4   6
ATOM      6  CA  GLY A   2      17.256  16.391  15.152  0.00  0.00    +0.163 C 
BRANCH   6   7
ATOM      7  C   GLY A   2      17.526  17.007  16.527  0.00  0.00    +0.229 C 
ATOM      8  O   GLY A   2      18.458  16.617  17.240  0.00  0.00    -0.286 OA
ENDBRANCH   6   7
ENDBRANCH   4   6
ENDBRANCH   1   2
BRANCH   1   9
ATOM      9  N   PHE A   1      12.993  16.742  14.731  0.00  0.00    -0.238 NA
ATOM     10  H   PHE A   1      12.663  16.893  13.756  0.00  0.00    +0.142 HD
ENDBRANCH   1   9
BRANCH   1  11
ATOM     11  CB  PHE A   1      13.464  14.477  13.915  0.00  0.00    +0.053 C 
BRANCH  11  12
ATOM     12  CG  PHE A   1      14.030  13.126  14.211  0.00  0.00    -0.020 A 
ATOM     13  CD2 PHE A   1      13.293  12.193  14.941  0.00  0.00    -0.004 A 
ATOM     14  CE2 PHE A   1      13.806  10.933  15.224  0.00  0.00    -0.000 A 
ATOM     15  CZ  PHE A   1      15.047  10.587  14.742  0.00  0.00    -0.000 A 
ATOM     16  CE1 PHE A   1      15.785  11.507  14.013  0.00  0.00    -0.000 A 
ATOM     17  CD1 PHE A   1      15.273  12.773  13.753  0.00  0.00    -0.004 A 
ENDBRANCH  11  12
ENDBRANCH   1  11
TORSDOF 6
REMARK  Name = ../refined-set-2016/4z1e/4z1e_pocket.pdb
REMARK  154 active torsions:
REMARK  status: ('A' for Active; 'I' for Inactive)
REMARK    1  A    between atoms: _1  and  _3
REMARK    2  A    between atoms: _3  and  _4
REMARK    3  A    between atoms: _3  and  _6
REMARK    4  A    between atoms: _6  and  _7
REMARK    5  A    between atoms: _17  and  _19
REMARK    6  A    between atoms: _19  and  _20
REMARK    7  A    between atoms: _19  and  _22
REMARK    8  A    between atoms: _22  and  _23
REMARK    9  A    between atoms: _28  and  _29
REMARK   10  A    between atoms: _31  and  _33
REMARK   11  A    between atoms: _33  and  _34
REMARK   12  A    between atoms: _33  and  _36
REMARK   13  A    between atoms: _36  and  _37
REMARK   14  A    between atoms: _40  and  _41
REMARK   15  A    between atoms: _46  and  _48
REMARK   16  A    between atoms: _48  and  _49
REMARK   17  A    between atoms: _48  and  _51
REMARK   18  A    between atoms: _51  and  _52
REMARK   19  A    between atoms: _55  and  _57
REMARK   20  A    between atoms: _57  and  _58
REMARK   21  A    between atoms: _57  and  _60
REMARK   22  A    between atoms: _60  and  _61
REMARK   23  A    between atoms: _66  and  _68
REMARK   24  A    between atoms: _68  and  _69
REMARK   25  A    between atoms: _72  and  _74
REMARK   26  A    between atoms: _74  and  _75
REMARK   27  A    between atoms: _74  and  _77
REMARK   28  A    between atoms: _77  and  _78
REMARK   29  A    between atoms: _83  and  _85
REMARK   30  A    between atoms: _85  and  _86
REMARK   31  A    between atoms: _85  and  _88
REMARK   32  A    between atoms: _88  and  _89
REMARK   33  A    between atoms: _89  and  _90
REMARK   34  A    between atoms: _93  and  _95
REMARK   35  A    between atoms: _95  and  _96
REMARK   36  A    between atoms: _95  and  _98
REMARK   37  A    between atoms: _98  and  _99
REMARK   38  A    between atoms: _102  and  _104
REMARK   39  A    between atoms: _104  and  _105
REMARK   40  A    between atoms: _104  and  _107
REMARK   41  A    between atoms: _107  and  _108
REMARK   42  A    between atoms: _108  and  _109
REMARK   43  A    between atoms: _114  and  _116
REMARK   44  A    between atoms: _116  and  _117
REMARK   45  A    between atoms: _116  and  _119
REMARK   46  A    between atoms: _119  and  _120
REMARK   47  A    between atoms: _126  and  _128
REMARK   48  A    between atoms: _139  and  _142
REMARK   49  A    between atoms: _142  and  _143
REMARK   50  A    between atoms: _151  and  _152
REMARK   51  A    between atoms: _160  and  _162
REMARK   52  A    between atoms: _162  and  _163
REMARK   53  A    between atoms: _162  and  _165
REMARK   54  A    between atoms: _165  and  _166
REMARK   55  A    between atoms: _166  and  _167
REMARK   56  A    between atoms: _170  and  _172
REMARK   57  A    between atoms: _172  and  _173
REMARK   58  A    between atoms: _172  and  _175
REMARK   59  A    between atoms: _175  and  _176
REMARK   60  A    between atoms: _181  and  _183
REMARK   61  A    between atoms: _183  and  _184
REMARK   62  A    between atoms: _183  and  _186
REMARK   63  A    between atoms: _186  and  _187
REMARK   64  A    between atoms: _187  and  _188
REMARK   65  A    between atoms: _191  and  _193
REMARK   66  A    between atoms: _193  and  _194
REMARK   67  A    between atoms: _193  and  _196
REMARK   68  A    between atoms: _196  and  _197
REMARK   69  A    between atoms: _200  and  _202
REMARK   70  A    between atoms: _202  and  _203
REMARK   71  A    between atoms: _202  and  _205
REMARK   72  A    between atoms: _205  and  _206
REMARK   73  A    between atoms: _207  and  ZN_427
REMARK   74  A    between atoms: _211  and  _213
REMARK   75  A    between atoms: _213  and  _214
REMARK   76  A    between atoms: _213  and  _216
REMARK   77  A    between atoms: _216  and  _217
REMARK   78  A    between atoms: _220  and  _222
REMARK   79  A    between atoms: _222  and  _223
REMARK   80  A    between atoms: _222  and  _225
REMARK   81  A    between atoms: _228  and  _230
REMARK   82  A    between atoms: _230  and  _231
REMARK   83  A    between atoms: _230  and  _233
REMARK   84  A    between atoms: _233  and  _234
REMARK   85  A    between atoms: _239  and  _241
REMARK   86  A    between atoms: _241  and  _242
REMARK   87  A    between atoms: _241  and  _244
REMARK   88  A    between atoms: _244  and  _245
REMARK   89  A    between atoms: _251  and  _253
REMARK   90  A    between atoms: _253  and  _254
REMARK   91  A    between atoms: _256  and  _258
REMARK   92  A    between atoms: _258  and  _259
REMARK   93  A    between atoms: _258  and  _261
REMARK   94  A    between atoms: _264  and  _266
REMARK   95  A    between atoms: _266  and  _267
REMARK   96  A    between atoms: _266  and  _269
REMARK   97  A    between atoms: _269  and  _270
REMARK   98  A    between atoms: _273  and  _275
REMARK   99  A    between atoms: _275  and  _276
REMARK  100  A    between atoms: _279  and  _281
REMARK  101  A    between atoms: _281  and  _282
REMARK  102  A    between atoms: _281  and  _284
REMARK  103  A    between atoms: _287  and  _289
REMARK  104  A    between atoms: _289  and  _290
REMARK  105  A    between atoms: _289  and  _292
REMARK  106  A    between atoms: _292  and  _293
REMARK  107  A    between atoms: _296  and  _298
REMARK  108  A    between atoms: _298  and  _299
REMARK  109  A    between atoms: _301  and  _303
REMARK  110  A    between atoms: _303  and  _304
REMARK  111  A    between atoms: _303  and  _306
REMARK  112  A    between atoms: _306  and  _307
REMARK  113  A    between atoms: _309  and  _311
REMARK  114  A    between atoms: _311  and  _312
REMARK  115  A    between atoms: _311  and  _314
REMARK  116  A    between atoms: _314  and  _315
REMARK  117  A    between atoms: _318  and  _320
REMARK  118  A    between atoms: _320  and  _321
REMARK  119  A    between atoms: _320  and  _323
REMARK  120  A    between atoms: _323  and  _324
REMARK  121  A    between atoms: _327  and  _329
REMARK  122  A    between atoms: _329  and  _330
REMARK  123  A    between atoms: _329  and  _332
REMARK  124  A    between atoms: _332  and  _333
REMARK  125  A    between atoms: _337  and  _338
REMARK  126  A    between atoms: _344  and  _345
REMARK  127  A    between atoms: _350  and  _352
REMARK  128  A    between atoms: _352  and  _353
REMARK  129  A    between atoms: _352  and  _355
REMARK  130  A    between atoms: _355  and  _356
REMARK  131  A    between atoms: _359  and  _361
REMARK  132  A    between atoms: _361  and  _362
REMARK  133  A    between atoms: _361  and  _364
REMARK  134  A    between atoms: _364  and  _365
REMARK  135  A    between atoms: _368  and  _370
REMARK  136  A    between atoms: _370  and  _371
REMARK  137  A    between atoms: _370  and  _373
REMARK  138  A    between atoms: _375  and  _377
REMARK  139  A    between atoms: _377  and  _378
REMARK  140  A    between atoms: _377  and  _380
REMARK  141  A    between atoms: _383  and  _385
REMARK  142  A    between atoms: _385  and  _386
REMARK  143  A    between atoms: _385  and  _388
REMARK  144  A    between atoms: _388  and  _389
REMARK  145  A    between atoms: _399  and  _401
REMARK  146  A    between atoms: _401  and  _402
REMARK  147  A    between atoms: _401  and  _404
REMARK  148  A    between atoms: _404  and  _405
REMARK  149  A    between atoms: _410  and  _412
REMARK  150  A    between atoms: _412  and  _413
REMARK  151  A    between atoms: _412  and  _415
REMARK  152  A    between atoms: _415  and  _416
REMARK  153  A    between atoms: _416  and  _417
REMARK  154  A    between atoms: _417  and  _418
REMARK                            x       y       z     vdW  Elec       q    Type
REMARK                         _______ _______ _______ _____ _____    ______ ____
ROOT
ATOM      1  CA  VAL A   1      17.291  13.174  19.729  0.00  0.00    +0.133 C 
ENDROOT
BRANCH   1   2
ATOM      2  CB  VAL A   1      17.909  12.469  18.482  0.00  0.00    +0.023 C 
ATOM      3  CG2 VAL A   1      18.803  13.397  17.657  0.00  0.00    +0.002 C 
ATOM      4  CG1 VAL A   1      16.801  11.827  17.632  0.00  0.00    +0.002 C 
ENDBRANCH   1   2
BRANCH   1   5
ATOM      5  N   VAL A   1      16.351  14.266  19.422  0.00  0.00    -0.239 NA
ATOM      6  H   VAL A   1      16.309  14.644  18.454  0.00  0.00    +0.142 HD
ENDBRANCH   1   5
BRANCH   1   7
ATOM      7  C   VAL A   1      18.396  13.595  20.711  0.00  0.00    +0.224 C 
ATOM      8  O   VAL A   1      19.025  12.736  21.307  0.00  0.00    -0.287 OA
ENDBRANCH   1   7
TORSDOF 3
REMARK  Name = ../refined-set-2016/4z1e/4z1e_pocket.pdb
REMARK  154 active torsions:
REMARK  status: ('A' for Active; 'I' for Inactive)
REMARK    1  A    between atoms: _1  and  _3
REMARK    2  A    between atoms: _3  and  _4
REMARK    3  A    between atoms: _3  and  _6
REMARK    4  A    between atoms: _6  and  _7
REMARK    5  A    between atoms: _17  and  _19
REMARK    6  A    between atoms: _19  and  _20
REMARK    7  A    between atoms: _19  and  _22
REMARK    8  A    between atoms: _22  and  _23
REMARK    9  A    between atoms: _28  and  _29
REMARK   10  A    between atoms: _31  and  _33
REMARK   11  A    between atoms: _33  and  _34
REMARK   12  A    between atoms: _33  and  _36
REMARK   13  A    between atoms: _36  and  _37
REMARK   14  A    between atoms: _40  and  _41
REMARK   15  A    between atoms: _46  and  _48
REMARK   16  A    between atoms: _48  and  _49
REMARK   17  A    between atoms: _48  and  _51
REMARK   18  A    between atoms: _51  and  _52
REMARK   19  A    between atoms: _55  and  _57
REMARK   20  A    between atoms: _57  and  _58
REMARK   21  A    between atoms: _57  and  _60
REMARK   22  A    between atoms: _60  and  _61
REMARK   23  A    between atoms: _66  and  _68
REMARK   24  A    between atoms: _68  and  _69
REMARK   25  A    between atoms: _72  and  _74
REMARK   26  A    between atoms: _74  and  _75
REMARK   27  A    between atoms: _74  and  _77
REMARK   28  A    between atoms: _77  and  _78
REMARK   29  A    between atoms: _83  and  _85
REMARK   30  A    between atoms: _85  and  _86
REMARK   31  A    between atoms: _85  and  _88
REMARK   32  A    between atoms: _88  and  _89
REMARK   33  A    between atoms: _89  and  _90
REMARK   34  A    between atoms: _93  and  _95
REMARK   35  A    between atoms: _95  and  _96
REMARK   36  A    between atoms: _95  and  _98
REMARK   37  A    between atoms: _98  and  _99
REMARK   38  A    between atoms: _102  and  _104
REMARK   39  A    between atoms: _104  and  _105
REMARK   40  A    between atoms: _104  and  _107
REMARK   41  A    between atoms: _107  and  _108
REMARK   42  A    between atoms: _108  and  _109
REMARK   43  A    between atoms: _114  and  _116
REMARK   44  A    between atoms: _116  and  _117
REMARK   45  A    between atoms: _116  and  _119
REMARK   46  A    between atoms: _119  and  _120
REMARK   47  A    between atoms: _126  and  _128
REMARK   48  A    between atoms: _139  and  _142
REMARK   49  A    between atoms: _142  and  _143
REMARK   50  A    between atoms: _151  and  _152
REMARK   51  A    between atoms: _160  and  _162
REMARK   52  A    between atoms: _162  and  _163
REMARK   53  A    between atoms: _162  and  _165
REMARK   54  A    between atoms: _165  and  _166
REMARK   55  A    between atoms: _166  and  _167
REMARK   56  A    between atoms: _170  and  _172
REMARK   57  A    between atoms: _172  and  _173
REMARK   58  A    between atoms: _172  and  _175
REMARK   59  A    between atoms: _175  and  _176
REMARK   60  A    between atoms: _181  and  _183
REMARK   61  A    between atoms: _183  and  _184
REMARK   62  A    between atoms: _183  and  _186
REMARK   63  A    between atoms: _186  and  _187
REMARK   64  A    between atoms: _187  and  _188
REMARK   65  A    between atoms: _191  and  _193
REMARK   66  A    between atoms: _193  and  _194
REMARK   67  A    between atoms: _193  and  _196
REMARK   68  A    between atoms: _196  and  _197
REMARK   69  A    between atoms: _200  and  _202
REMARK   70  A    between atoms: _202  and  _203
REMARK   71  A    between atoms: _202  and  _205
REMARK   72  A    between atoms: _205  and  _206
REMARK   73  A    between atoms: _207  and  ZN_427
REMARK   74  A    between atoms: _211  and  _213
REMARK   75  A    between atoms: _213  and  _214
REMARK   76  A    between atoms: _213  and  _216
REMARK   77  A    between atoms: _216  and  _217
REMARK   78  A    between atoms: _220  and  _222
REMARK   79  A    between atoms: _222  and  _223
REMARK   80  A    between atoms: _222  and  _225
REMARK   81  A    between atoms: _228  and  _230
REMARK   82  A    between atoms: _230  and  _231
REMARK   83  A    between atoms: _230  and  _233
REMARK   84  A    between atoms: _233  and  _234
REMARK   85  A    between atoms: _239  and  _241
REMARK   86  A    between atoms: _241  and  _242
REMARK   87  A    between atoms: _241  and  _244
REMARK   88  A    between atoms: _244  and  _245
REMARK   89  A    between atoms: _251  and  _253
REMARK   90  A    between atoms: _253  and  _254
REMARK   91  A    between atoms: _256  and  _258
REMARK   92  A    between atoms: _258  and  _259
REMARK   93  A    between atoms: _258  and  _261
REMARK   94  A    between atoms: _264  and  _266
REMARK   95  A    between atoms: _266  and  _267
REMARK   96  A    between atoms: _266  and  _269
REMARK   97  A    between atoms: _269  and  _270
REMARK   98  A    between atoms: _273  and  _275
REMARK   99  A    between atoms: _275  and  _276
REMARK  100  A    between atoms: _279  and  _281
REMARK  101  A    between atoms: _281  and  _282
REMARK  102  A    between atoms: _281  and  _284
REMARK  103  A    between atoms: _287  and  _289
REMARK  104  A    between atoms: _289  and  _290
REMARK  105  A    between atoms: _289  and  _292
REMARK  106  A    between atoms: _292  and  _293
REMARK  107  A    between atoms: _296  and  _298
REMARK  108  A    between atoms: _298  and  _299
REMARK  109  A    between atoms: _301  and  _303
REMARK  110  A    between atoms: _303  and  _304
REMARK  111  A    between atoms: _303  and  _306
REMARK  112  A    between atoms: _306  and  _307
REMARK  113  A    between atoms: _309  and  _311
REMARK  114  A    between atoms: _311  and  _312
REMARK  115  A    between atoms: _311  and  _314
REMARK  116  A    between atoms: _314  and  _315
REMARK  117  A    between atoms: _318  and  _320
REMARK  118  A    between atoms: _320  and  _321
REMARK  119  A    between atoms: _320  and  _323
REMARK  120  A    between atoms: _323  and  _324
REMARK  121  A    between atoms: _327  and  _329
REMARK  122  A    between atoms: _329  and  _330
REMARK  123  A    between atoms: _329  and  _332
REMARK  124  A    between atoms: _332  and  _333
REMARK  125  A    between atoms: _337  and  _338
REMARK  126  A    between atoms: _344  and  _345
REMARK  127  A    between atoms: _350  and  _352
REMARK  128  A    between atoms: _352  and  _353
REMARK  129  A    between atoms: _352  and  _355
REMARK  130  A    between atoms: _355  and  _356
REMARK  131  A    between atoms: _359  and  _361
REMARK  132  A    between atoms: _361  and  _362
REMARK  133  A    between atoms: _361  and  _364
REMARK  134  A    between atoms: _364  and  _365
REMARK  135  A    between atoms: _368  and  _370
REMARK  136  A    between atoms: _370  and  _371
REMARK  137  A    between atoms: _370  and  _373
REMARK  138  A    between atoms: _375  and  _377
REMARK  139  A    between atoms: _377  and  _378
REMARK  140  A    between atoms: _377  and  _380
REMARK  141  A    between atoms: _383  and  _385
REMARK  142  A    between atoms: _385  and  _386
REMARK  143  A    between atoms: _385  and  _388
REMARK  144  A    between atoms: _388  and  _389
REMARK  145  A    between atoms: _399  and  _401
REMARK  146  A    between atoms: _401  and  _402
REMARK  147  A    between atoms: _401  and  _404
REMARK  148  A    between atoms: _404  and  _405
REMARK  149  A    between atoms: _410  and  _412
REMARK  150  A    between atoms: _412  and  _413
REMARK  151  A    between atoms: _412  and  _415
REMARK  152  A    between atoms: _415  and  _416
REMARK  153  A    between atoms: _416  and  _417
REMARK  154  A    between atoms: _417  and  _418
REMARK                            x       y       z     vdW  Elec       q    Type
REMARK                         _______ _______ _______ _____ _____    ______ ____
ROOT
ATOM      1  C   ALA A   2       8.794   6.647  20.779  0.00  0.00    +0.241 C 
ATOM      2  N   VAL A   3       9.318   5.456  21.048  0.00  0.00    -0.297 N 
ATOM      3  H   VAL A   3       9.767   5.286  21.970  0.00  0.00    +0.150 HD
ATOM      4  O   ALA A   2       8.381   6.937  19.650  0.00  0.00    -0.273 OA
ENDROOT
BRANCH   1   5
ATOM      5  CA  ALA A   2       8.833   7.709  21.899  0.00  0.00    +0.149 C 
ATOM      6  CB  ALA A   2       7.417   8.203  22.303  0.00  0.00    +0.031 C 
BRANCH   5   9
ATOM      7  C   LEU A   1      10.654   9.316  22.077  0.00  0.00    +0.238 C 
ATOM      8  O   LEU A   1      10.894   9.013  23.263  0.00  0.00    -0.274 OA
ATOM      9  N   ALA A   2       9.634   8.818  21.397  0.00  0.00    -0.297 N 
ATOM     10  H   ALA A   2       9.396   9.232  20.473  0.00  0.00    +0.150 HD
BRANCH   7  11
ATOM     11  CA  LEU A   1      11.535  10.310  21.294  0.00  0.00    +0.145 C 
BRANCH  11  12
ATOM     12  N   LEU A   1      12.201  11.253  22.167  0.00  0.00    -0.238 NA
ATOM     13  H   LEU A   1      12.764  10.891  22.963  0.00  0.00    +0.142 HD
ENDBRANCH  11  12
BRANCH  11  14
ATOM     14  CB  LEU A   1      12.546   9.508  20.461  0.00  0.00    +0.026 C 
BRANCH  14  15
ATOM     15  CG  LEU A   1      13.562  10.095  19.485  0.00  0.00    +0.002 C 
ATOM     16  CD2 LEU A   1      12.963  11.207  18.622  0.00  0.00    +0.000 C 
ATOM     17  CD1 LEU A   1      14.154   8.998  18.597  0.00  0.00    +0.000 C 
ENDBRANCH  14  15
ENDBRANCH  11  14
ENDBRANCH   7  11
ENDBRANCH   5   9
ENDBRANCH   1   5
BRANCH   2  18
ATOM     18  CA  VAL A   3       9.268   4.396  20.067  0.00  0.00    +0.149 C 
BRANCH  18  19
ATOM     19  C   VAL A   3       8.305   3.333  20.583  0.00  0.00    +0.241 C 
ATOM     20  O   VAL A   3       8.457   2.815  21.717  0.00  0.00    -0.273 OA
ATOM     21  N   LEU A   4       7.290   3.089  19.758  0.00  0.00    -0.298 N 
ATOM     22  H   LEU A   4       7.191   3.688  18.913  0.00  0.00    +0.150 HD
BRANCH  21  23
ATOM     23  CA  LEU A   4       6.304   2.028  19.969  0.00  0.00    +0.137 C 
BRANCH  23  24
ATOM     24  C   LEU A   4       6.808   0.740  19.337  0.00  0.00    +0.227 C 
ATOM     25  O   LEU A   4       6.970   0.660  18.108  0.00  0.00    -0.286 OA
ENDBRANCH  23  24
BRANCH  23  26
ATOM     26  CB  LEU A   4       4.937   2.447  19.372  0.00  0.00    +0.028 C 
BRANCH  26  27
ATOM     27  CG  LEU A   4       3.767   1.500  19.587  0.00  0.00    +0.002 C 
ATOM     28  CD2 LEU A   4       3.626   1.226  21.082  0.00  0.00    +0.000 C 
ATOM     29  CD1 LEU A   4       2.495   2.034  18.919  0.00  0.00    +0.000 C 
ENDBRANCH  26  27
ENDBRANCH  23  26
ENDBRANCH  21  23
ENDBRANCH  18  19
BRANCH  18  30
ATOM     30  CB  VAL A   3      10.675   3.843  19.684  0.00  0.00    +0.027 C 
ATOM     31  CG2 VAL A   3      11.529   5.005  19.197  0.00  0.00    +0.002 C 
ATOM     32  CG1 VAL A   3      10.559   2.790  18.585  0.00  0.00    +0.002 C 
ENDBRANCH  18  30
ENDBRANCH   2  18
TORSDOF 13
REMARK  Name = ../refined-set-2016/4z1e/4z1e_pocket.pdb
REMARK  154 active torsions:
REMARK  status: ('A' for Active; 'I' for Inactive)
REMARK    1  A    between atoms: _1  and  _3
REMARK    2  A    between atoms: _3  and  _4
REMARK    3  A    between atoms: _3  and  _6
REMARK    4  A    between atoms: _6  and  _7
REMARK    5  A    between atoms: _17  and  _19
REMARK    6  A    between atoms: _19  and  _20
REMARK    7  A    between atoms: _19  and  _22
REMARK    8  A    between atoms: _22  and  _23
REMARK    9  A    between atoms: _28  and  _29
REMARK   10  A    between atoms: _31  and  _33
REMARK   11  A    between atoms: _33  and  _34
REMARK   12  A    between atoms: _33  and  _36
REMARK   13  A    between atoms: _36  and  _37
REMARK   14  A    between atoms: _40  and  _41
REMARK   15  A    between atoms: _46  and  _48
REMARK   16  A    between atoms: _48  and  _49
REMARK   17  A    between atoms: _48  and  _51
REMARK   18  A    between atoms: _51  and  _52
REMARK   19  A    between atoms: _55  and  _57
REMARK   20  A    between atoms: _57  and  _58
REMARK   21  A    between atoms: _57  and  _60
REMARK   22  A    between atoms: _60  and  _61
REMARK   23  A    between atoms: _66  and  _68
REMARK   24  A    between atoms: _68  and  _69
REMARK   25  A    between atoms: _72  and  _74
REMARK   26  A    between atoms: _74  and  _75
REMARK   27  A    between atoms: _74  and  _77
REMARK   28  A    between atoms: _77  and  _78
REMARK   29  A    between atoms: _83  and  _85
REMARK   30  A    between atoms: _85  and  _86
REMARK   31  A    between atoms: _85  and  _88
REMARK   32  A    between atoms: _88  and  _89
REMARK   33  A    between atoms: _89  and  _90
REMARK   34  A    between atoms: _93  and  _95
REMARK   35  A    between atoms: _95  and  _96
REMARK   36  A    between atoms: _95  and  _98
REMARK   37  A    between atoms: _98  and  _99
REMARK   38  A    between atoms: _102  and  _104
REMARK   39  A    between atoms: _104  and  _105
REMARK   40  A    between atoms: _104  and  _107
REMARK   41  A    between atoms: _107  and  _108
REMARK   42  A    between atoms: _108  and  _109
REMARK   43  A    between atoms: _114  and  _116
REMARK   44  A    between atoms: _116  and  _117
REMARK   45  A    between atoms: _116  and  _119
REMARK   46  A    between atoms: _119  and  _120
REMARK   47  A    between atoms: _126  and  _128
REMARK   48  A    between atoms: _139  and  _142
REMARK   49  A    between atoms: _142  and  _143
REMARK   50  A    between atoms: _151  and  _152
REMARK   51  A    between atoms: _160  and  _162
REMARK   52  A    between atoms: _162  and  _163
REMARK   53  A    between atoms: _162  and  _165
REMARK   54  A    between atoms: _165  and  _166
REMARK   55  A    between atoms: _166  and  _167
REMARK   56  A    between atoms: _170  and  _172
REMARK   57  A    between atoms: _172  and  _173
REMARK   58  A    between atoms: _172  and  _175
REMARK   59  A    between atoms: _175  and  _176
REMARK   60  A    between atoms: _181  and  _183
REMARK   61  A    between atoms: _183  and  _184
REMARK   62  A    between atoms: _183  and  _186
REMARK   63  A    between atoms: _186  and  _187
REMARK   64  A    between atoms: _187  and  _188
REMARK   65  A    between atoms: _191  and  _193
REMARK   66  A    between atoms: _193  and  _194
REMARK   67  A    between atoms: _193  and  _196
REMARK   68  A    between atoms: _196  and  _197
REMARK   69  A    between atoms: _200  and  _202
REMARK   70  A    between atoms: _202  and  _203
REMARK   71  A    between atoms: _202  and  _205
REMARK   72  A    between atoms: _205  and  _206
REMARK   73  A    between atoms: _207  and  ZN_427
REMARK   74  A    between atoms: _211  and  _213
REMARK   75  A    between atoms: _213  and  _214
REMARK   76  A    between atoms: _213  and  _216
REMARK   77  A    between atoms: _216  and  _217
REMARK   78  A    between atoms: _220  and  _222
REMARK   79  A    between atoms: _222  and  _223
REMARK   80  A    between atoms: _222  and  _225
REMARK   81  A    between atoms: _228  and  _230
REMARK   82  A    between atoms: _230  and  _231
REMARK   83  A    between atoms: _230  and  _233
REMARK   84  A    between atoms: _233  and  _234
REMARK   85  A    between atoms: _239  and  _241
REMARK   86  A    between atoms: _241  and  _242
REMARK   87  A    between atoms: _241  and  _244
REMARK   88  A    between atoms: _244  and  _245
REMARK   89  A    between atoms: _251  and  _253
REMARK   90  A    between atoms: _253  and  _254
REMARK   91  A    between atoms: _256  and  _258
REMARK   92  A    between atoms: _258  and  _259
REMARK   93  A    between atoms: _258  and  _261
REMARK   94  A    between atoms: _264  and  _266
REMARK   95  A    between atoms: _266  and  _267
REMARK   96  A    between atoms: _266  and  _269
REMARK   97  A    between atoms: _269  and  _270
REMARK   98  A    between atoms: _273  and  _275
REMARK   99  A    between atoms: _275  and  _276
REMARK  100  A    between atoms: _279  and  _281
REMARK  101  A    between atoms: _281  and  _282
REMARK  102  A    between atoms: _281  and  _284
REMARK  103  A    between atoms: _287  and  _289
REMARK  104  A    between atoms: _289  and  _290
REMARK  105  A    between atoms: _289  and  _292
REMARK  106  A    between atoms: _292  and  _293
REMARK  107  A    between atoms: _296  and  _298
REMARK  108  A    between atoms: _298  and  _299
REMARK  109  A    between atoms: _301  and  _303
REMARK  110  A    between atoms: _303  and  _304
REMARK  111  A    between atoms: _303  and  _306
REMARK  112  A    between atoms: _306  and  _307
REMARK  113  A    between atoms: _309  and  _311
REMARK  114  A    between atoms: _311  and  _312
REMARK  115  A    between atoms: _311  and  _314
REMARK  116  A    between atoms: _314  and  _315
REMARK  117  A    between atoms: _318  and  _320
REMARK  118  A    between atoms: _320  and  _321
REMARK  119  A    between atoms: _320  and  _323
REMARK  120  A    between atoms: _323  and  _324
REMARK  121  A    between atoms: _327  and  _329
REMARK  122  A    between atoms: _329  and  _330
REMARK  123  A    between atoms: _329  and  _332
REMARK  124  A    between atoms: _332  and  _333
REMARK  125  A    between atoms: _337  and  _338
REMARK  126  A    between atoms: _344  and  _345
REMARK  127  A    between atoms: _350  and  _352
REMARK  128  A    between atoms: _352  and  _353
REMARK  129  A    between atoms: _352  and  _355
REMARK  130  A    between atoms: _355  and  _356
REMARK  131  A    between atoms: _359  and  _361
REMARK  132  A    between atoms: _361  and  _362
REMARK  133  A    between atoms: _361  and  _364
REMARK  134  A    between atoms: _364  and  _365
REMARK  135  A    between atoms: _368  and  _370
REMARK  136  A    between atoms: _370  and  _371
REMARK  137  A    between atoms: _370  and  _373
REMARK  138  A    between atoms: _375  and  _377
REMARK  139  A    between atoms: _377  and  _378
REMARK  140  A    between atoms: _377  and  _380
REMARK  141  A    between atoms: _383  and  _385
REMARK  142  A    between atoms: _385  and  _386
REMARK  143  A    between atoms: _385  and  _388
REMARK  144  A    between atoms: _388  and  _389
REMARK  145  A    between atoms: _399  and  _401
REMARK  146  A    between atoms: _401  and  _402
REMARK  147  A    between atoms: _401  and  _404
REMARK  148  A    between atoms: _404  and  _405
REMARK  149  A    between atoms: _410  and  _412
REMARK  150  A    between atoms: _412  and  _413
REMARK  151  A    between atoms: _412  and  _415
REMARK  152  A    between atoms: _415  and  _416
REMARK  153  A    between atoms: _416  and  _417
REMARK  154  A    between atoms: _417  and  _418
REMARK                            x       y       z     vdW  Elec       q    Type
REMARK                         _______ _______ _______ _____ _____    ______ ____
ROOT
ATOM      1  CA  THR A   5      21.454   1.764  16.189  0.00  0.00    +0.176 C 
ENDROOT
BRANCH   1   2
ATOM      2  C   THR A   5      22.268   3.012  16.500  0.00  0.00    +0.246 C 
ATOM      3  O   THR A   5      21.757   3.945  17.165  0.00  0.00    -0.273 OA
ATOM      4  N   PRO A   6      23.535   3.051  16.008  0.00  0.00    -0.272 N 
ATOM      5  CA  PRO A   6      24.309   4.252  16.087  0.00  0.00    +0.152 C 
ATOM      6  CB  PRO A   6      25.495   3.953  15.174  0.00  0.00    +0.031 C 
ATOM      7  CG  PRO A   6      25.737   2.495  15.431  0.00  0.00    +0.024 C 
ATOM      8  CD  PRO A   6      24.320   1.941  15.424  0.00  0.00    +0.094 C 
BRANCH   5   9
ATOM      9  C   PRO A   6      23.483   5.400  15.562  0.00  0.00    +0.244 C 
ATOM     10  N   PRO A   7      23.566   6.571  16.203  0.00  0.00    -0.272 N 
ATOM     11  CA  PRO A   7      24.438   7.039  17.300  0.00  0.00    +0.152 C 
ATOM     12  CB  PRO A   7      24.276   8.580  17.233  0.00  0.00    +0.031 C 
ATOM     13  CG  PRO A   7      22.878   8.759  16.764  0.00  0.00    +0.024 C 
ATOM     14  CD  PRO A   7      22.590   7.616  15.818  0.00  0.00    +0.094 C 
ATOM     15  O   PRO A   6      22.757   5.200  14.581  0.00  0.00    -0.273 OA
BRANCH  11  16
ATOM     16  C   PRO A   7      24.098   6.554  18.728  0.00  0.00    +0.241 C 
ATOM     17  O   PRO A   7      24.776   6.961  19.680  0.00  0.00    -0.273 OA
ATOM     18  N   LEU A   8      23.129   5.641  18.867  0.00  0.00    -0.297 N 
ATOM     19  H   LEU A   8      22.599   5.348  18.021  0.00  0.00    +0.150 HD
BRANCH  18  20
ATOM     20  CA  LEU A   8      22.785   5.044  20.134  0.00  0.00    +0.149 C 
BRANCH  20  21
ATOM     21  C   LEU A   8      22.382   6.079  21.215  0.00  0.00    +0.241 C 
ATOM     22  O   LEU A   8      22.594   5.877  22.389  0.00  0.00    -0.273 OA
ATOM     23  N   LEU A   9      21.762   7.165  20.796  0.00  0.00    -0.298 N 
ATOM     24  H   LEU A   9      21.449   7.225  19.806  0.00  0.00    +0.150 HD
BRANCH  23  25
ATOM     25  CA  LEU A   9      21.506   8.293  21.705  0.00  0.00    +0.137 C 
BRANCH  25  26
ATOM     26  C   LEU A   9      20.505   7.863  22.775  0.00  0.00    +0.227 C 
ATOM     27  O   LEU A   9      19.535   7.169  22.483  0.00  0.00    -0.286 OA
ENDBRANCH  25  26
BRANCH  25  28
ATOM     28  CB  LEU A   9      21.019   9.508  20.921  0.00  0.00    +0.028 C 
BRANCH  28  29
ATOM     29  CG  LEU A   9      22.114  10.074  19.986  0.00  0.00    +0.002 C 
ATOM     30  CD2 LEU A   9      23.214  10.688  20.874  0.00  0.00    +0.000 C 
ATOM     31  CD1 LEU A   9      21.592  11.088  18.962  0.00  0.00    +0.000 C 
ENDBRANCH  28  29
ENDBRANCH  25  28
ENDBRANCH  23  25
ENDBRANCH  20  21
BRANCH  20  32
ATOM     32  CB  LEU A   8      23.893   4.121  20.606  0.00  0.00    +0.029 C 
BRANCH  32  33
ATOM     33  CG  LEU A   8      24.222   2.934  19.658  0.00  0.00    +0.002 C 
ATOM     34  CD2 LEU A   8      25.551   2.249  19.989  0.00  0.00    +0.000 C 
ATOM     35  CD1 LEU A   8      23.070   1.923  19.637  0.00  0.00    +0.000 C 
ENDBRANCH  32  33
ENDBRANCH  20  32
ENDBRANCH  18  20
ENDBRANCH  11  16
ENDBRANCH   5   9
ENDBRANCH   1   2
BRANCH   1  38
ATOM     36  C   THR A   4      20.169   0.595  17.908  0.00  0.00    +0.243 C 
ATOM     37  O   THR A   4      20.794  -0.453  17.761  0.00  0.00    -0.273 OA
ATOM     38  N   THR A   5      20.325   1.655  17.117  0.00  0.00    -0.295 N 
ATOM     39  H   THR A   5      19.628   2.425  17.159  0.00  0.00    +0.150 HD
BRANCH  36  40
ATOM     40  CA  THR A   4      19.213   0.714  19.056  0.00  0.00    +0.176 C 
BRANCH  40  43
ATOM     41  C   LEU A   3      18.953   2.988  19.876  0.00  0.00    +0.241 C 
ATOM     42  O   LEU A   3      19.925   2.865  20.597  0.00  0.00    -0.273 OA
ATOM     43  N   THR A   4      18.515   2.006  19.094  0.00  0.00    -0.295 N 
ATOM     44  H   THR A   4      17.671   2.154  18.504  0.00  0.00    +0.150 HD
BRANCH  41  45
ATOM     45  CA  LEU A   3      18.173   4.301  19.869  0.00  0.00    +0.149 C 
BRANCH  45  48
ATOM     46  C   SER A   2      17.666   4.089  22.211  0.00  0.00    +0.243 C 
ATOM     47  O   SER A   2      16.906   3.144  22.029  0.00  0.00    -0.273 OA
ATOM     48  N   LEU A   3      18.213   4.777  21.227  0.00  0.00    -0.297 N 
ATOM     49  H   LEU A   3      18.682   5.681  21.437  0.00  0.00    +0.150 HD
BRANCH  46  50
ATOM     50  CA  SER A   2      18.092   4.508  23.608  0.00  0.00    +0.178 C 
BRANCH  50  53
ATOM     51  C   GLY A   1      16.910   4.554  25.713  0.00  0.00    +0.240 C 
ATOM     52  O   GLY A   1      17.009   5.780  25.831  0.00  0.00    -0.274 OA
ATOM     53  N   SER A   2      17.344   3.877  24.664  0.00  0.00    -0.295 N 
ATOM     54  H   SER A   2      17.139   2.859  24.600  0.00  0.00    +0.150 HD
BRANCH  51  55
ATOM     55  CA  GLY A   1      16.289   3.716  26.782  0.00  0.00    +0.169 C 
BRANCH  55  56
ATOM     56  N   GLY A   1      15.269   4.388  27.607  0.00  0.00    -0.236 NA
ATOM     57  H   GLY A   1      14.740   5.187  27.204  0.00  0.00    +0.142 HD
ENDBRANCH  55  56
ENDBRANCH  51  55
ENDBRANCH  50  53
BRANCH  50  58
ATOM     58  CB  SER A   2      19.573   4.131  23.795  0.00  0.00    +0.166 C 
BRANCH  58  59
ATOM     59  OG  SER A   2      19.814   2.828  23.331  0.00  0.00    -0.380 OA
ATOM     60  H   SER A   2      19.588   2.775  22.369  0.00  0.00    +0.211 HD
ENDBRANCH  58  59
ENDBRANCH  50  58
ENDBRANCH  46  50
ENDBRANCH  45  48
BRANCH  45  61
ATOM     61  CB  LEU A   3      18.834   5.309  18.927  0.00  0.00    +0.029 C 
BRANCH  61  62
ATOM     62  CG  LEU A   3      18.197   6.722  18.864  0.00  0.00    +0.002 C 
ATOM     63  CD2 LEU A   3      16.824   6.672  18.237  0.00  0.00    +0.000 C 
ATOM     64  CD1 LEU A   3      19.125   7.653  18.073  0.00  0.00    +0.000 C 
ENDBRANCH  61  62
ENDBRANCH  45  61
ENDBRANCH  41  45
ENDBRANCH  40  43
BRANCH  40  65
ATOM     65  CB  THR A   4      18.261  -0.485  19.002  0.00  0.00    +0.137 C 
ATOM     66  CG2 THR A   4      17.236  -0.438  20.190  0.00  0.00    +0.034 C 
BRANCH  65  67
ATOM     67  OG1 THR A   4      17.599  -0.464  17.742  0.00  0.00    -0.382 OA
ATOM     68  HG1 THR A   4      16.977  -1.232  17.685  0.00  0.00    +0.210 HD
ENDBRANCH  65  67
ENDBRANCH  40  65
ENDBRANCH  36  40
ENDBRANCH   1  38
BRANCH   1  69
ATOM     69  CB  THR A   5      20.956   1.852  14.710  0.00  0.00    +0.137 C 
ATOM     70  CG2 THR A   5      20.055   0.658  14.362  0.00  0.00    +0.034 C 
BRANCH  69  71
ATOM     71  OG1 THR A   5      20.236   3.073  14.504  0.00  0.00    -0.382 OA
ATOM     72  HG1 THR A   5      19.926   3.117  13.565  0.00  0.00    +0.210 HD
ENDBRANCH  69  71
ENDBRANCH   1  69
TORSDOF 28
REMARK  Name = ../refined-set-2016/4z1e/4z1e_pocket.pdb
REMARK  154 active torsions:
REMARK  status: ('A' for Active; 'I' for Inactive)
REMARK    1  A    between atoms: _1  and  _3
REMARK    2  A    between atoms: _3  and  _4
REMARK    3  A    between atoms: _3  and  _6
REMARK    4  A    between atoms: _6  and  _7
REMARK    5  A    between atoms: _17  and  _19
REMARK    6  A    between atoms: _19  and  _20
REMARK    7  A    between atoms: _19  and  _22
REMARK    8  A    between atoms: _22  and  _23
REMARK    9  A    between atoms: _28  and  _29
REMARK   10  A    between atoms: _31  and  _33
REMARK   11  A    between atoms: _33  and  _34
REMARK   12  A    between atoms: _33  and  _36
REMARK   13  A    between atoms: _36  and  _37
REMARK   14  A    between atoms: _40  and  _41
REMARK   15  A    between atoms: _46  and  _48
REMARK   16  A    between atoms: _48  and  _49
REMARK   17  A    between atoms: _48  and  _51
REMARK   18  A    between atoms: _51  and  _52
REMARK   19  A    between atoms: _55  and  _57
REMARK   20  A    between atoms: _57  and  _58
REMARK   21  A    between atoms: _57  and  _60
REMARK   22  A    between atoms: _60  and  _61
REMARK   23  A    between atoms: _66  and  _68
REMARK   24  A    between atoms: _68  and  _69
REMARK   25  A    between atoms: _72  and  _74
REMARK   26  A    between atoms: _74  and  _75
REMARK   27  A    between atoms: _74  and  _77
REMARK   28  A    between atoms: _77  and  _78
REMARK   29  A    between atoms: _83  and  _85
REMARK   30  A    between atoms: _85  and  _86
REMARK   31  A    between atoms: _85  and  _88
REMARK   32  A    between atoms: _88  and  _89
REMARK   33  A    between atoms: _89  and  _90
REMARK   34  A    between atoms: _93  and  _95
REMARK   35  A    between atoms: _95  and  _96
REMARK   36  A    between atoms: _95  and  _98
REMARK   37  A    between atoms: _98  and  _99
REMARK   38  A    between atoms: _102  and  _104
REMARK   39  A    between atoms: _104  and  _105
REMARK   40  A    between atoms: _104  and  _107
REMARK   41  A    between atoms: _107  and  _108
REMARK   42  A    between atoms: _108  and  _109
REMARK   43  A    between atoms: _114  and  _116
REMARK   44  A    between atoms: _116  and  _117
REMARK   45  A    between atoms: _116  and  _119
REMARK   46  A    between atoms: _119  and  _120
REMARK   47  A    between atoms: _126  and  _128
REMARK   48  A    between atoms: _139  and  _142
REMARK   49  A    between atoms: _142  and  _143
REMARK   50  A    between atoms: _151  and  _152
REMARK   51  A    between atoms: _160  and  _162
REMARK   52  A    between atoms: _162  and  _163
REMARK   53  A    between atoms: _162  and  _165
REMARK   54  A    between atoms: _165  and  _166
REMARK   55  A    between atoms: _166  and  _167
REMARK   56  A    between atoms: _170  and  _172
REMARK   57  A    between atoms: _172  and  _173
REMARK   58  A    between atoms: _172  and  _175
REMARK   59  A    between atoms: _175  and  _176
REMARK   60  A    between atoms: _181  and  _183
REMARK   61  A    between atoms: _183  and  _184
REMARK   62  A    between atoms: _183  and  _186
REMARK   63  A    between atoms: _186  and  _187
REMARK   64  A    between atoms: _187  and  _188
REMARK   65  A    between atoms: _191  and  _193
REMARK   66  A    between atoms: _193  and  _194
REMARK   67  A    between atoms: _193  and  _196
REMARK   68  A    between atoms: _196  and  _197
REMARK   69  A    between atoms: _200  and  _202
REMARK   70  A    between atoms: _202  and  _203
REMARK   71  A    between atoms: _202  and  _205
REMARK   72  A    between atoms: _205  and  _206
REMARK   73  A    between atoms: _207  and  ZN_427
REMARK   74  A    between atoms: _211  and  _213
REMARK   75  A    between atoms: _213  and  _214
REMARK   76  A    between atoms: _213  and  _216
REMARK   77  A    between atoms: _216  and  _217
REMARK   78  A    between atoms: _220  and  _222
REMARK   79  A    between atoms: _222  and  _223
REMARK   80  A    between atoms: _222  and  _225
REMARK   81  A    between atoms: _228  and  _230
REMARK   82  A    between atoms: _230  and  _231
REMARK   83  A    between atoms: _230  and  _233
REMARK   84  A    between atoms: _233  and  _234
REMARK   85  A    between atoms: _239  and  _241
REMARK   86  A    between atoms: _241  and  _242
REMARK   87  A    between atoms: _241  and  _244
REMARK   88  A    between atoms: _244  and  _245
REMARK   89  A    between atoms: _251  and  _253
REMARK   90  A    between atoms: _253  and  _254
REMARK   91  A    between atoms: _256  and  _258
REMARK   92  A    between atoms: _258  and  _259
REMARK   93  A    between atoms: _258  and  _261
REMARK   94  A    between atoms: _264  and  _266
REMARK   95  A    between atoms: _266  and  _267
REMARK   96  A    between atoms: _266  and  _269
REMARK   97  A    between atoms: _269  and  _270
REMARK   98  A    between atoms: _273  and  _275
REMARK   99  A    between atoms: _275  and  _276
REMARK  100  A    between atoms: _279  and  _281
REMARK  101  A    between atoms: _281  and  _282
REMARK  102  A    between atoms: _281  and  _284
REMARK  103  A    between atoms: _287  and  _289
REMARK  104  A    between atoms: _289  and  _290
REMARK  105  A    between atoms: _289  and  _292
REMARK  106  A    between atoms: _292  and  _293
REMARK  107  A    between atoms: _296  and  _298
REMARK  108  A    between atoms: _298  and  _299
REMARK  109  A    between atoms: _301  and  _303
REMARK  110  A    between atoms: _303  and  _304
REMARK  111  A    between atoms: _303  and  _306
REMARK  112  A    between atoms: _306  and  _307
REMARK  113  A    between atoms: _309  and  _311
REMARK  114  A    between atoms: _311  and  _312
REMARK  115  A    between atoms: _311  and  _314
REMARK  116  A    between atoms: _314  and  _315
REMARK  117  A    between atoms: _318  and  _320
REMARK  118  A    between atoms: _320  and  _321
REMARK  119  A    between atoms: _320  and  _323
REMARK  120  A    between atoms: _323  and  _324
REMARK  121  A    between atoms: _327  and  _329
REMARK  122  A    between atoms: _329  and  _330
REMARK  123  A    between atoms: _329  and  _332
REMARK  124  A    between atoms: _332  and  _333
REMARK  125  A    between atoms: _337  and  _338
REMARK  126  A    between atoms: _344  and  _345
REMARK  127  A    between atoms: _350  and  _352
REMARK  128  A    between atoms: _352  and  _353
REMARK  129  A    between atoms: _352  and  _355
REMARK  130  A    between atoms: _355  and  _356
REMARK  131  A    between atoms: _359  and  _361
REMARK  132  A    between atoms: _361  and  _362
REMARK  133  A    between atoms: _361  and  _364
REMARK  134  A    between atoms: _364  and  _365
REMARK  135  A    between atoms: _368  and  _370
REMARK  136  A    between atoms: _370  and  _371
REMARK  137  A    between atoms: _370  and  _373
REMARK  138  A    between atoms: _375  and  _377
REMARK  139  A    between atoms: _377  and  _378
REMARK  140  A    between atoms: _377  and  _380
REMARK  141  A    between atoms: _383  and  _385
REMARK  142  A    between atoms: _385  and  _386
REMARK  143  A    between atoms: _385  and  _388
REMARK  144  A    between atoms: _388  and  _389
REMARK  145  A    between atoms: _399  and  _401
REMARK  146  A    between atoms: _401  and  _402
REMARK  147  A    between atoms: _401  and  _404
REMARK  148  A    between atoms: _404  and  _405
REMARK  149  A    between atoms: _410  and  _412
REMARK  150  A    between atoms: _412  and  _413
REMARK  151  A    between atoms: _412  and  _415
REMARK  152  A    between atoms: _415  and  _416
REMARK  153  A    between atoms: _416  and  _417
REMARK  154  A    between atoms: _417  and  _418
REMARK                            x       y       z     vdW  Elec       q    Type
REMARK                         _______ _______ _______ _____ _____    ______ ____
ROOT
ATOM      1  C   CYS A   1      15.278   9.183  23.945  0.00  0.00    +0.239 C 
ATOM      2  N   VAL A   2      15.144   7.892  24.243  0.00  0.00    -0.298 N 
ATOM      3  H   VAL A   2      15.933   7.388  24.696  0.00  0.00    +0.150 HD
ATOM      4  O   CYS A   1      14.315   9.869  23.594  0.00  0.00    -0.274 OA
ENDROOT
BRANCH   1   5
ATOM      5  CA  CYS A   1      16.701   9.818  24.092  0.00  0.00    +0.156 C 
BRANCH   5   6
ATOM      6  N   CYS A   1      17.788   8.822  24.256  0.00  0.00    -0.237 NA
ATOM      7  H   CYS A   1      17.868   8.058  23.555  0.00  0.00    +0.142 HD
ENDBRANCH   5   6
BRANCH   5   8
ATOM      8  CB  CYS A   1      17.013  10.649  22.902  0.00  0.00    +0.095 C 
ATOM      9  SG  CYS A   1      16.989   9.739  21.334  0.00  0.00    -0.080 S 
ENDBRANCH   5   8
ENDBRANCH   1   5
BRANCH   2  10
ATOM     10  CA  VAL A   2      13.880   7.154  23.939  0.00  0.00    +0.137 C 
BRANCH  10  11
ATOM     11  CB  VAL A   2      14.148   5.898  23.044  0.00  0.00    +0.026 C 
ATOM     12  CG2 VAL A   2      12.819   5.193  22.699  0.00  0.00    +0.002 C 
ATOM     13  CG1 VAL A   2      14.945   6.289  21.782  0.00  0.00    +0.002 C 
ENDBRANCH  10  11
BRANCH  10  14
ATOM     14  C   VAL A   2      13.134   6.710  25.186  0.00  0.00    +0.227 C 
ATOM     15  O   VAL A   2      13.698   6.038  26.061  0.00  0.00    -0.286 OA
ENDBRANCH  10  14
ENDBRANCH   2  10
TORSDOF 6
REMARK  Name = ../refined-set-2016/4z1e/4z1e_pocket.pdb
REMARK  154 active torsions:
REMARK  status: ('A' for Active; 'I' for Inactive)
REMARK    1  A    between atoms: _1  and  _3
REMARK    2  A    between atoms: _3  and  _4
REMARK    3  A    between atoms: _3  and  _6
REMARK    4  A    between atoms: _6  and  _7
REMARK    5  A    between atoms: _17  and  _19
REMARK    6  A    between atoms: _19  and  _20
REMARK    7  A    between atoms: _19  and  _22
REMARK    8  A    between atoms: _22  and  _23
REMARK    9  A    between atoms: _28  and  _29
REMARK   10  A    between atoms: _31  and  _33
REMARK   11  A    between atoms: _33  and  _34
REMARK   12  A    between atoms: _33  and  _36
REMARK   13  A    between atoms: _36  and  _37
REMARK   14  A    between atoms: _40  and  _41
REMARK   15  A    between atoms: _46  and  _48
REMARK   16  A    between atoms: _48  and  _49
REMARK   17  A    between atoms: _48  and  _51
REMARK   18  A    between atoms: _51  and  _52
REMARK   19  A    between atoms: _55  and  _57
REMARK   20  A    between atoms: _57  and  _58
REMARK   21  A    between atoms: _57  and  _60
REMARK   22  A    between atoms: _60  and  _61
REMARK   23  A    between atoms: _66  and  _68
REMARK   24  A    between atoms: _68  and  _69
REMARK   25  A    between atoms: _72  and  _74
REMARK   26  A    between atoms: _74  and  _75
REMARK   27  A    between atoms: _74  and  _77
REMARK   28  A    between atoms: _77  and  _78
REMARK   29  A    between atoms: _83  and  _85
REMARK   30  A    between atoms: _85  and  _86
REMARK   31  A    between atoms: _85  and  _88
REMARK   32  A    between atoms: _88  and  _89
REMARK   33  A    between atoms: _89  and  _90
REMARK   34  A    between atoms: _93  and  _95
REMARK   35  A    between atoms: _95  and  _96
REMARK   36  A    between atoms: _95  and  _98
REMARK   37  A    between atoms: _98  and  _99
REMARK   38  A    between atoms: _102  and  _104
REMARK   39  A    between atoms: _104  and  _105
REMARK   40  A    between atoms: _104  and  _107
REMARK   41  A    between atoms: _107  and  _108
REMARK   42  A    between atoms: _108  and  _109
REMARK   43  A    between atoms: _114  and  _116
REMARK   44  A    between atoms: _116  and  _117
REMARK   45  A    between atoms: _116  and  _119
REMARK   46  A    between atoms: _119  and  _120
REMARK   47  A    between atoms: _126  and  _128
REMARK   48  A    between atoms: _139  and  _142
REMARK   49  A    between atoms: _142  and  _143
REMARK   50  A    between atoms: _151  and  _152
REMARK   51  A    between atoms: _160  and  _162
REMARK   52  A    between atoms: _162  and  _163
REMARK   53  A    between atoms: _162  and  _165
REMARK   54  A    between atoms: _165  and  _166
REMARK   55  A    between atoms: _166  and  _167
REMARK   56  A    between atoms: _170  and  _172
REMARK   57  A    between atoms: _172  and  _173
REMARK   58  A    between atoms: _172  and  _175
REMARK   59  A    between atoms: _175  and  _176
REMARK   60  A    between atoms: _181  and  _183
REMARK   61  A    between atoms: _183  and  _184
REMARK   62  A    between atoms: _183  and  _186
REMARK   63  A    between atoms: _186  and  _187
REMARK   64  A    between atoms: _187  and  _188
REMARK   65  A    between atoms: _191  and  _193
REMARK   66  A    between atoms: _193  and  _194
REMARK   67  A    between atoms: _193  and  _196
REMARK   68  A    between atoms: _196  and  _197
REMARK   69  A    between atoms: _200  and  _202
REMARK   70  A    between atoms: _202  and  _203
REMARK   71  A    between atoms: _202  and  _205
REMARK   72  A    between atoms: _205  and  _206
REMARK   73  A    between atoms: _207  and  ZN_427
REMARK   74  A    between atoms: _211  and  _213
REMARK   75  A    between atoms: _213  and  _214
REMARK   76  A    between atoms: _213  and  _216
REMARK   77  A    between atoms: _216  and  _217
REMARK   78  A    between atoms: _220  and  _222
REMARK   79  A    between atoms: _222  and  _223
REMARK   80  A    between atoms: _222  and  _225
REMARK   81  A    between atoms: _228  and  _230
REMARK   82  A    between atoms: _230  and  _231
REMARK   83  A    between atoms: _230  and  _233
REMARK   84  A    between atoms: _233  and  _234
REMARK   85  A    between atoms: _239  and  _241
REMARK   86  A    between atoms: _241  and  _242
REMARK   87  A    between atoms: _241  and  _244
REMARK   88  A    between atoms: _244  and  _245
REMARK   89  A    between atoms: _251  and  _253
REMARK   90  A    between atoms: _253  and  _254
REMARK   91  A    between atoms: _256  and  _258
REMARK   92  A    between atoms: _258  and  _259
REMARK   93  A    between atoms: _258  and  _261
REMARK   94  A    between atoms: _264  and  _266
REMARK   95  A    between atoms: _266  and  _267
REMARK   96  A    between atoms: _266  and  _269
REMARK   97  A    between atoms: _269  and  _270
REMARK   98  A    between atoms: _273  and  _275
REMARK   99  A    between atoms: _275  and  _276
REMARK  100  A    between atoms: _279  and  _281
REMARK  101  A    between atoms: _281  and  _282
REMARK  102  A    between atoms: _281  and  _284
REMARK  103  A    between atoms: _287  and  _289
REMARK  104  A    between atoms: _289  and  _290
REMARK  105  A    between atoms: _289  and  _292
REMARK  106  A    between atoms: _292  and  _293
REMARK  107  A    between atoms: _296  and  _298
REMARK  108  A    between atoms: _298  and  _299
REMARK  109  A    between atoms: _301  and  _303
REMARK  110  A    between atoms: _303  and  _304
REMARK  111  A    between atoms: _303  and  _306
REMARK  112  A    between atoms: _306  and  _307
REMARK  113  A    between atoms: _309  and  _311
REMARK  114  A    between atoms: _311  and  _312
REMARK  115  A    between atoms: _311  and  _314
REMARK  116  A    between atoms: _314  and  _315
REMARK  117  A    between atoms: _318  and  _320
REMARK  118  A    between atoms: _320  and  _321
REMARK  119  A    between atoms: _320  and  _323
REMARK  120  A    between atoms: _323  and  _324
REMARK  121  A    between atoms: _327  and  _329
REMARK  122  A    between atoms: _329  and  _330
REMARK  123  A    between atoms: _329  and  _332
REMARK  124  A    between atoms: _332  and  _333
REMARK  125  A    between atoms: _337  and  _338
REMARK  126  A    between atoms: _344  and  _345
REMARK  127  A    between atoms: _350  and  _352
REMARK  128  A    between atoms: _352  and  _353
REMARK  129  A    between atoms: _352  and  _355
REMARK  130  A    between atoms: _355  and  _356
REMARK  131  A    between atoms: _359  and  _361
REMARK  132  A    between atoms: _361  and  _362
REMARK  133  A    between atoms: _361  and  _364
REMARK  134  A    between atoms: _364  and  _365
REMARK  135  A    between atoms: _368  and  _370
REMARK  136  A    between atoms: _370  and  _371
REMARK  137  A    between atoms: _370  and  _373
REMARK  138  A    between atoms: _375  and  _377
REMARK  139  A    between atoms: _377  and  _378
REMARK  140  A    between atoms: _377  and  _380
REMARK  141  A    between atoms: _383  and  _385
REMARK  142  A    between atoms: _385  and  _386
REMARK  143  A    between atoms: _385  and  _388
REMARK  144  A    between atoms: _388  and  _389
REMARK  145  A    between atoms: _399  and  _401
REMARK  146  A    between atoms: _401  and  _402
REMARK  147  A    between atoms: _401  and  _404
REMARK  148  A    between atoms: _404  and  _405
REMARK  149  A    between atoms: _410  and  _412
REMARK  150  A    between atoms: _412  and  _413
REMARK  151  A    between atoms: _412  and  _415
REMARK  152  A    between atoms: _415  and  _416
REMARK  153  A    between atoms: _416  and  _417
REMARK  154  A    between atoms: _417  and  _418
REMARK                            x       y       z     vdW  Elec       q    Type
REMARK                         _______ _______ _______ _____ _____    ______ ____
ROOT
ATOM      1  CG  TRP A   1      12.358   1.748  24.173  0.00  0.00    -0.002 A 
ATOM      2  CD1 TRP A   1      13.601   2.375  24.335  0.00  0.00    +0.068 A 
ATOM      3  NE1 TRP A   1      14.301   2.367  23.144  0.00  0.00    -0.352 N 
ATOM      4  HE1 TRP A   1      15.239   2.792  23.001  0.00  0.00    +0.166 HD
ATOM      5  CE2 TRP A   1      13.568   1.709  22.167  0.00  0.00    +0.056 A 
ATOM      6  CZ2 TRP A   1      13.856   1.440  20.856  0.00  0.00    +0.017 A 
ATOM      7  CH2 TRP A   1      12.867   0.786  20.088  0.00  0.00    +0.001 A 
ATOM      8  CZ3 TRP A   1      11.632   0.382  20.646  0.00  0.00    +0.000 A 
ATOM      9  CE3 TRP A   1      11.314   0.674  21.975  0.00  0.00    +0.001 A 
ATOM     10  CD2 TRP A   1      12.295   1.322  22.771  0.00  0.00    +0.013 A 
ENDROOT
BRANCH   1  11
ATOM     11  CB  TRP A   1      11.245   1.626  25.161  0.00  0.00    +0.053 C 
BRANCH  11  12
ATOM     12  CA  TRP A   1      10.248   2.775  24.965  0.00  0.00    +0.137 C 
BRANCH  12  13
ATOM     13  N   TRP A   1      10.714   3.967  25.613  0.00  0.00    -0.239 NA
ATOM     14  H   TRP A   1      11.368   3.882  26.417  0.00  0.00    +0.142 HD
ENDBRANCH  12  13
BRANCH  12  15
ATOM     15  C   TRP A   1       8.884   2.414  25.494  0.00  0.00    +0.224 C 
ATOM     16  O   TRP A   1       8.633   2.454  26.700  0.00  0.00    -0.287 OA
ENDBRANCH  12  15
ENDBRANCH  11  12
ENDBRANCH   1  11
TORSDOF 4
REMARK  Name = ../refined-set-2016/4z1e/4z1e_pocket.pdb
REMARK  154 active torsions:
REMARK  status: ('A' for Active; 'I' for Inactive)
REMARK    1  A    between atoms: _1  and  _3
REMARK    2  A    between atoms: _3  and  _4
REMARK    3  A    between atoms: _3  and  _6
REMARK    4  A    between atoms: _6  and  _7
REMARK    5  A    between atoms: _17  and  _19
REMARK    6  A    between atoms: _19  and  _20
REMARK    7  A    between atoms: _19  and  _22
REMARK    8  A    between atoms: _22  and  _23
REMARK    9  A    between atoms: _28  and  _29
REMARK   10  A    between atoms: _31  and  _33
REMARK   11  A    between atoms: _33  and  _34
REMARK   12  A    between atoms: _33  and  _36
REMARK   13  A    between atoms: _36  and  _37
REMARK   14  A    between atoms: _40  and  _41
REMARK   15  A    between atoms: _46  and  _48
REMARK   16  A    between atoms: _48  and  _49
REMARK   17  A    between atoms: _48  and  _51
REMARK   18  A    between atoms: _51  and  _52
REMARK   19  A    between atoms: _55  and  _57
REMARK   20  A    between atoms: _57  and  _58
REMARK   21  A    between atoms: _57  and  _60
REMARK   22  A    between atoms: _60  and  _61
REMARK   23  A    between atoms: _66  and  _68
REMARK   24  A    between atoms: _68  and  _69
REMARK   25  A    between atoms: _72  and  _74
REMARK   26  A    between atoms: _74  and  _75
REMARK   27  A    between atoms: _74  and  _77
REMARK   28  A    between atoms: _77  and  _78
REMARK   29  A    between atoms: _83  and  _85
REMARK   30  A    between atoms: _85  and  _86
REMARK   31  A    between atoms: _85  and  _88
REMARK   32  A    between atoms: _88  and  _89
REMARK   33  A    between atoms: _89  and  _90
REMARK   34  A    between atoms: _93  and  _95
REMARK   35  A    between atoms: _95  and  _96
REMARK   36  A    between atoms: _95  and  _98
REMARK   37  A    between atoms: _98  and  _99
REMARK   38  A    between atoms: _102  and  _104
REMARK   39  A    between atoms: _104  and  _105
REMARK   40  A    between atoms: _104  and  _107
REMARK   41  A    between atoms: _107  and  _108
REMARK   42  A    between atoms: _108  and  _109
REMARK   43  A    between atoms: _114  and  _116
REMARK   44  A    between atoms: _116  and  _117
REMARK   45  A    between atoms: _116  and  _119
REMARK   46  A    between atoms: _119  and  _120
REMARK   47  A    between atoms: _126  and  _128
REMARK   48  A    between atoms: _139  and  _142
REMARK   49  A    between atoms: _142  and  _143
REMARK   50  A    between atoms: _151  and  _152
REMARK   51  A    between atoms: _160  and  _162
REMARK   52  A    between atoms: _162  and  _163
REMARK   53  A    between atoms: _162  and  _165
REMARK   54  A    between atoms: _165  and  _166
REMARK   55  A    between atoms: _166  and  _167
REMARK   56  A    between atoms: _170  and  _172
REMARK   57  A    between atoms: _172  and  _173
REMARK   58  A    between atoms: _172  and  _175
REMARK   59  A    between atoms: _175  and  _176
REMARK   60  A    between atoms: _181  and  _183
REMARK   61  A    between atoms: _183  and  _184
REMARK   62  A    between atoms: _183  and  _186
REMARK   63  A    between atoms: _186  and  _187
REMARK   64  A    between atoms: _187  and  _188
REMARK   65  A    between atoms: _191  and  _193
REMARK   66  A    between atoms: _193  and  _194
REMARK   67  A    between atoms: _193  and  _196
REMARK   68  A    between atoms: _196  and  _197
REMARK   69  A    between atoms: _200  and  _202
REMARK   70  A    between atoms: _202  and  _203
REMARK   71  A    between atoms: _202  and  _205
REMARK   72  A    between atoms: _205  and  _206
REMARK   73  A    between atoms: _207  and  ZN_427
REMARK   74  A    between atoms: _211  and  _213
REMARK   75  A    between atoms: _213  and  _214
REMARK   76  A    between atoms: _213  and  _216
REMARK   77  A    between atoms: _216  and  _217
REMARK   78  A    between atoms: _220  and  _222
REMARK   79  A    between atoms: _222  and  _223
REMARK   80  A    between atoms: _222  and  _225
REMARK   81  A    between atoms: _228  and  _230
REMARK   82  A    between atoms: _230  and  _231
REMARK   83  A    between atoms: _230  and  _233
REMARK   84  A    between atoms: _233  and  _234
REMARK   85  A    between atoms: _239  and  _241
REMARK   86  A    between atoms: _241  and  _242
REMARK   87  A    between atoms: _241  and  _244
REMARK   88  A    between atoms: _244  and  _245
REMARK   89  A    between atoms: _251  and  _253
REMARK   90  A    between atoms: _253  and  _254
REMARK   91  A    between atoms: _256  and  _258
REMARK   92  A    between atoms: _258  and  _259
REMARK   93  A    between atoms: _258  and  _261
REMARK   94  A    between atoms: _264  and  _266
REMARK   95  A    between atoms: _266  and  _267
REMARK   96  A    between atoms: _266  and  _269
REMARK   97  A    between atoms: _269  and  _270
REMARK   98  A    between atoms: _273  and  _275
REMARK   99  A    between atoms: _275  and  _276
REMARK  100  A    between atoms: _279  and  _281
REMARK  101  A    between atoms: _281  and  _282
REMARK  102  A    between atoms: _281  and  _284
REMARK  103  A    between atoms: _287  and  _289
REMARK  104  A    between atoms: _289  and  _290
REMARK  105  A    between atoms: _289  and  _292
REMARK  106  A    between atoms: _292  and  _293
REMARK  107  A    between atoms: _296  and  _298
REMARK  108  A    between atoms: _298  and  _299
REMARK  109  A    between atoms: _301  and  _303
REMARK  110  A    between atoms: _303  and  _304
REMARK  111  A    between atoms: _303  and  _306
REMARK  112  A    between atoms: _306  and  _307
REMARK  113  A    between atoms: _309  and  _311
REMARK  114  A    between atoms: _311  and  _312
REMARK  115  A    between atoms: _311  and  _314
REMARK  116  A    between atoms: _314  and  _315
REMARK  117  A    between atoms: _318  and  _320
REMARK  118  A    between atoms: _320  and  _321
REMARK  119  A    between atoms: _320  and  _323
REMARK  120  A    between atoms: _323  and  _324
REMARK  121  A    between atoms: _327  and  _329
REMARK  122  A    between atoms: _329  and  _330
REMARK  123  A    between atoms: _329  and  _332
REMARK  124  A    between atoms: _332  and  _333
REMARK  125  A    between atoms: _337  and  _338
REMARK  126  A    between atoms: _344  and  _345
REMARK  127  A    between atoms: _350  and  _352
REMARK  128  A    between atoms: _352  and  _353
REMARK  129  A    between atoms: _352  and  _355
REMARK  130  A    between atoms: _355  and  _356
REMARK  131  A    between atoms: _359  and  _361
REMARK  132  A    between atoms: _361  and  _362
REMARK  133  A    between atoms: _361  and  _364
REMARK  134  A    between atoms: _364  and  _365
REMARK  135  A    between atoms: _368  and  _370
REMARK  136  A    between atoms: _370  and  _371
REMARK  137  A    between atoms: _370  and  _373
REMARK  138  A    between atoms: _375  and  _377
REMARK  139  A    between atoms: _377  and  _378
REMARK  140  A    between atoms: _377  and  _380
REMARK  141  A    between atoms: _383  and  _385
REMARK  142  A    between atoms: _385  and  _386
REMARK  143  A    between atoms: _385  and  _388
REMARK  144  A    between atoms: _388  and  _389
REMARK  145  A    between atoms: _399  and  _401
REMARK  146  A    between atoms: _401  and  _402
REMARK  147  A    between atoms: _401  and  _404
REMARK  148  A    between atoms: _404  and  _405
REMARK  149  A    between atoms: _410  and  _412
REMARK  150  A    between atoms: _412  and  _413
REMARK  151  A    between atoms: _412  and  _415
REMARK  152  A    between atoms: _415  and  _416
REMARK  153  A    between atoms: _416  and  _417
REMARK  154  A    between atoms: _417  and  _418
REMARK                            x       y       z     vdW  Elec       q    Type
REMARK                         _______ _______ _______ _____ _____    ______ ____
ROOT
ATOM      1  CB  ASN A   1      19.200  -5.666  10.478  0.00  0.00    +0.000 C 
ENDROOT
BRANCH   1   2
ATOM      2  CG  ASN A   1      17.732  -5.880  10.181  0.00  0.00    +0.000 C 
ATOM      3  OD1 ASN A   1      17.100  -6.772  10.757  0.00  0.00    +0.000 OA
ATOM      4  ND2 ASN A   1      17.165  -5.030   9.322  0.00  0.00    +0.000 N 
ATOM      5 HD21 ASN A   1      16.149  -5.103   9.113  0.00  0.00    +0.000 HD
ATOM      6 HD22 ASN A   1      17.739  -4.295   8.862  0.00  0.00    +0.000 HD
ENDBRANCH   1   2
BRANCH   1   7
ATOM      7  CA  ASN A   1      19.692  -6.519  11.649  0.00  0.00    +0.000 C 
BRANCH   7   8
ATOM      8  N   ASN A   1      19.413  -7.954  11.380  0.00  0.00    +0.000 NA
ATOM      9  H   ASN A   1      18.511  -8.217  10.935  0.00  0.00    +0.000 HD
ENDBRANCH   7   8
BRANCH   7  10
ATOM     10  C   ASN A   1      19.077  -6.056  13.014  0.00  0.00    +0.000 C 
ATOM     11  O   ASN A   1      18.373  -5.060  13.086  0.00  0.00    +0.000 OA
ENDBRANCH   7  10
ENDBRANCH   1   7
TORSDOF 4
REMARK  Name = ../refined-set-2016/4z1e/4z1e_pocket.pdb
REMARK  154 active torsions:
REMARK  status: ('A' for Active; 'I' for Inactive)
REMARK    1  A    between atoms: _1  and  _3
REMARK    2  A    between atoms: _3  and  _4
REMARK    3  A    between atoms: _3  and  _6
REMARK    4  A    between atoms: _6  and  _7
REMARK    5  A    between atoms: _17  and  _19
REMARK    6  A    between atoms: _19  and  _20
REMARK    7  A    between atoms: _19  and  _22
REMARK    8  A    between atoms: _22  and  _23
REMARK    9  A    between atoms: _28  and  _29
REMARK   10  A    between atoms: _31  and  _33
REMARK   11  A    between atoms: _33  and  _34
REMARK   12  A    between atoms: _33  and  _36
REMARK   13  A    between atoms: _36  and  _37
REMARK   14  A    between atoms: _40  and  _41
REMARK   15  A    between atoms: _46  and  _48
REMARK   16  A    between atoms: _48  and  _49
REMARK   17  A    between atoms: _48  and  _51
REMARK   18  A    between atoms: _51  and  _52
REMARK   19  A    between atoms: _55  and  _57
REMARK   20  A    between atoms: _57  and  _58
REMARK   21  A    between atoms: _57  and  _60
REMARK   22  A    between atoms: _60  and  _61
REMARK   23  A    between atoms: _66  and  _68
REMARK   24  A    between atoms: _68  and  _69
REMARK   25  A    between atoms: _72  and  _74
REMARK   26  A    between atoms: _74  and  _75
REMARK   27  A    between atoms: _74  and  _77
REMARK   28  A    between atoms: _77  and  _78
REMARK   29  A    between atoms: _83  and  _85
REMARK   30  A    between atoms: _85  and  _86
REMARK   31  A    between atoms: _85  and  _88
REMARK   32  A    between atoms: _88  and  _89
REMARK   33  A    between atoms: _89  and  _90
REMARK   34  A    between atoms: _93  and  _95
REMARK   35  A    between atoms: _95  and  _96
REMARK   36  A    between atoms: _95  and  _98
REMARK   37  A    between atoms: _98  and  _99
REMARK   38  A    between atoms: _102  and  _104
REMARK   39  A    between atoms: _104  and  _105
REMARK   40  A    between atoms: _104  and  _107
REMARK   41  A    between atoms: _107  and  _108
REMARK   42  A    between atoms: _108  and  _109
REMARK   43  A    between atoms: _114  and  _116
REMARK   44  A    between atoms: _116  and  _117
REMARK   45  A    between atoms: _116  and  _119
REMARK   46  A    between atoms: _119  and  _120
REMARK   47  A    between atoms: _126  and  _128
REMARK   48  A    between atoms: _139  and  _142
REMARK   49  A    between atoms: _142  and  _143
REMARK   50  A    between atoms: _151  and  _152
REMARK   51  A    between atoms: _160  and  _162
REMARK   52  A    between atoms: _162  and  _163
REMARK   53  A    between atoms: _162  and  _165
REMARK   54  A    between atoms: _165  and  _166
REMARK   55  A    between atoms: _166  and  _167
REMARK   56  A    between atoms: _170  and  _172
REMARK   57  A    between atoms: _172  and  _173
REMARK   58  A    between atoms: _172  and  _175
REMARK   59  A    between atoms: _175  and  _176
REMARK   60  A    between atoms: _181  and  _183
REMARK   61  A    between atoms: _183  and  _184
REMARK   62  A    between atoms: _183  and  _186
REMARK   63  A    between atoms: _186  and  _187
REMARK   64  A    between atoms: _187  and  _188
REMARK   65  A    between atoms: _191  and  _193
REMARK   66  A    between atoms: _193  and  _194
REMARK   67  A    between atoms: _193  and  _196
REMARK   68  A    between atoms: _196  and  _197
REMARK   69  A    between atoms: _200  and  _202
REMARK   70  A    between atoms: _202  and  _203
REMARK   71  A    between atoms: _202  and  _205
REMARK   72  A    between atoms: _205  and  _206
REMARK   73  A    between atoms: _207  and  ZN_427
REMARK   74  A    between atoms: _211  and  _213
REMARK   75  A    between atoms: _213  and  _214
REMARK   76  A    between atoms: _213  and  _216
REMARK   77  A    between atoms: _216  and  _217
REMARK   78  A    between atoms: _220  and  _222
REMARK   79  A    between atoms: _222  and  _223
REMARK   80  A    between atoms: _222  and  _225
REMARK   81  A    between atoms: _228  and  _230
REMARK   82  A    between atoms: _230  and  _231
REMARK   83  A    between atoms: _230  and  _233
REMARK   84  A    between atoms: _233  and  _234
REMARK   85  A    between atoms: _239  and  _241
REMARK   86  A    between atoms: _241  and  _242
REMARK   87  A    between atoms: _241  and  _244
REMARK   88  A    between atoms: _244  and  _245
REMARK   89  A    between atoms: _251  and  _253
REMARK   90  A    between atoms: _253  and  _254
REMARK   91  A    between atoms: _256  and  _258
REMARK   92  A    between atoms: _258  and  _259
REMARK   93  A    between atoms: _258  and  _261
REMARK   94  A    between atoms: _264  and  _266
REMARK   95  A    between atoms: _266  and  _267
REMARK   96  A    between atoms: _266  and  _269
REMARK   97  A    between atoms: _269  and  _270
REMARK   98  A    between atoms: _273  and  _275
REMARK   99  A    between atoms: _275  and  _276
REMARK  100  A    between atoms: _279  and  _281
REMARK  101  A    between atoms: _281  and  _282
REMARK  102  A    between atoms: _281  and  _284
REMARK  103  A    between atoms: _287  and  _289
REMARK  104  A    between atoms: _289  and  _290
REMARK  105  A    between atoms: _289  and  _292
REMARK  106  A    between atoms: _292  and  _293
REMARK  107  A    between atoms: _296  and  _298
REMARK  108  A    between atoms: _298  and  _299
REMARK  109  A    between atoms: _301  and  _303
REMARK  110  A    between atoms: _303  and  _304
REMARK  111  A    between atoms: _303  and  _306
REMARK  112  A    between atoms: _306  and  _307
REMARK  113  A    between atoms: _309  and  _311
REMARK  114  A    between atoms: _311  and  _312
REMARK  115  A    between atoms: _311  and  _314
REMARK  116  A    between atoms: _314  and  _315
REMARK  117  A    between atoms: _318  and  _320
REMARK  118  A    between atoms: _320  and  _321
REMARK  119  A    between atoms: _320  and  _323
REMARK  120  A    between atoms: _323  and  _324
REMARK  121  A    between atoms: _327  and  _329
REMARK  122  A    between atoms: _329  and  _330
REMARK  123  A    between atoms: _329  and  _332
REMARK  124  A    between atoms: _332  and  _333
REMARK  125  A    between atoms: _337  and  _338
REMARK  126  A    between atoms: _344  and  _345
REMARK  127  A    between atoms: _350  and  _352
REMARK  128  A    between atoms: _352  and  _353
REMARK  129  A    between atoms: _352  and  _355
REMARK  130  A    between atoms: _355  and  _356
REMARK  131  A    between atoms: _359  and  _361
REMARK  132  A    between atoms: _361  and  _362
REMARK  133  A    between atoms: _361  and  _364
REMARK  134  A    between atoms: _364  and  _365
REMARK  135  A    between atoms: _368  and  _370
REMARK  136  A    between atoms: _370  and  _371
REMARK  137  A    between atoms: _370  and  _373
REMARK  138  A    between atoms: _375  and  _377
REMARK  139  A    between atoms: _377  and  _378
REMARK  140  A    between atoms: _377  and  _380
REMARK  141  A    between atoms: _383  and  _385
REMARK  142  A    between atoms: _385  and  _386
REMARK  143  A    between atoms: _385  and  _388
REMARK  144  A    between atoms: _388  and  _389
REMARK  145  A    between atoms: _399  and  _401
REMARK  146  A    between atoms: _401  and  _402
REMARK  147  A    between atoms: _401  and  _404
REMARK  148  A    between atoms: _404  and  _405
REMARK  149  A    between atoms: _410  and  _412
REMARK  150  A    between atoms: _412  and  _413
REMARK  151  A    between atoms: _412  and  _415
REMARK  152  A    between atoms: _415  and  _416
REMARK  153  A    between atoms: _416  and  _417
REMARK  154  A    between atoms: _417  and  _418
REMARK                            x       y       z     vdW  Elec       q    Type
REMARK                         _______ _______ _______ _____ _____    ______ ____
ROOT
ATOM      1  NE  ARG A   1      23.378  -2.084  21.263  0.00  0.00    +0.330 N 
ATOM      2  CZ  ARG A   1      23.523  -1.045  22.074  0.00  0.00    +0.000 C 
ATOM      3  NH2 ARG A   1      24.698  -0.869  22.677  0.00  0.00    +0.330 N 
ATOM      4 HH21 ARG A   1      24.838  -0.062  23.318  0.00  0.00    +0.000 HD
ATOM      5 HH22 ARG A   1      25.475  -1.539  22.507  0.00  0.00    +0.000 HD
ATOM      6  NH1 ARG A   1      22.514  -0.206  22.337  0.00  0.00    +0.330 N 
ATOM      7 HH11 ARG A   1      22.661   0.600  22.978  0.00  0.00    +0.000 HD
ATOM      8 HH12 ARG A   1      21.583  -0.360  21.900  0.00  0.00    +0.000 HD
ATOM      9  HE  ARG A   1      24.197  -2.715  21.147  0.00  0.00    +0.000 HD
ENDROOT
BRANCH   1  10
ATOM     10  CD  ARG A   1      22.165  -2.419  20.518  0.00  0.00    +0.000 C 
BRANCH  10  11
ATOM     11  CG  ARG A   1      22.233  -3.825  19.928  0.00  0.00    +0.000 C 
BRANCH  11  12
ATOM     12  CB  ARG A   1      21.196  -4.030  18.825  0.00  0.00    +0.000 C 
BRANCH  12  13
ATOM     13  CA  ARG A   1      21.079  -5.485  18.338  0.00  0.00    +0.000 C 
BRANCH  13  14
ATOM     14  N   ARG A   1      20.149  -5.533  17.242  0.00  0.00    +0.000 NA
ATOM     15  H   ARG A   1      19.440  -4.776  17.168  0.00  0.00    +0.000 HD
ENDBRANCH  13  14
BRANCH  13  16
ATOM     16  C   ARG A   1      20.577  -6.373  19.494  0.00  0.00    +0.000 C 
ATOM     17  O   ARG A   1      19.377  -6.346  19.812  0.00  0.00    +0.000 OA
ENDBRANCH  13  16
ENDBRANCH  12  13
ENDBRANCH  11  12
ENDBRANCH  10  11
ENDBRANCH   1  10
TORSDOF 6
REMARK  Name = ../refined-set-2016/4z1e/4z1e_pocket.pdb
REMARK  154 active torsions:
REMARK  status: ('A' for Active; 'I' for Inactive)
REMARK    1  A    between atoms: _1  and  _3
REMARK    2  A    between atoms: _3  and  _4
REMARK    3  A    between atoms: _3  and  _6
REMARK    4  A    between atoms: _6  and  _7
REMARK    5  A    between atoms: _17  and  _19
REMARK    6  A    between atoms: _19  and  _20
REMARK    7  A    between atoms: _19  and  _22
REMARK    8  A    between atoms: _22  and  _23
REMARK    9  A    between atoms: _28  and  _29
REMARK   10  A    between atoms: _31  and  _33
REMARK   11  A    between atoms: _33  and  _34
REMARK   12  A    between atoms: _33  and  _36
REMARK   13  A    between atoms: _36  and  _37
REMARK   14  A    between atoms: _40  and  _41
REMARK   15  A    between atoms: _46  and  _48
REMARK   16  A    between atoms: _48  and  _49
REMARK   17  A    between atoms: _48  and  _51
REMARK   18  A    between atoms: _51  and  _52
REMARK   19  A    between atoms: _55  and  _57
REMARK   20  A    between atoms: _57  and  _58
REMARK   21  A    between atoms: _57  and  _60
REMARK   22  A    between atoms: _60  and  _61
REMARK   23  A    between atoms: _66  and  _68
REMARK   24  A    between atoms: _68  and  _69
REMARK   25  A    between atoms: _72  and  _74
REMARK   26  A    between atoms: _74  and  _75
REMARK   27  A    between atoms: _74  and  _77
REMARK   28  A    between atoms: _77  and  _78
REMARK   29  A    between atoms: _83  and  _85
REMARK   30  A    between atoms: _85  and  _86
REMARK   31  A    between atoms: _85  and  _88
REMARK   32  A    between atoms: _88  and  _89
REMARK   33  A    between atoms: _89  and  _90
REMARK   34  A    between atoms: _93  and  _95
REMARK   35  A    between atoms: _95  and  _96
REMARK   36  A    between atoms: _95  and  _98
REMARK   37  A    between atoms: _98  and  _99
REMARK   38  A    between atoms: _102  and  _104
REMARK   39  A    between atoms: _104  and  _105
REMARK   40  A    between atoms: _104  and  _107
REMARK   41  A    between atoms: _107  and  _108
REMARK   42  A    between atoms: _108  and  _109
REMARK   43  A    between atoms: _114  and  _116
REMARK   44  A    between atoms: _116  and  _117
REMARK   45  A    between atoms: _116  and  _119
REMARK   46  A    between atoms: _119  and  _120
REMARK   47  A    between atoms: _126  and  _128
REMARK   48  A    between atoms: _139  and  _142
REMARK   49  A    between atoms: _142  and  _143
REMARK   50  A    between atoms: _151  and  _152
REMARK   51  A    between atoms: _160  and  _162
REMARK   52  A    between atoms: _162  and  _163
REMARK   53  A    between atoms: _162  and  _165
REMARK   54  A    between atoms: _165  and  _166
REMARK   55  A    between atoms: _166  and  _167
REMARK   56  A    between atoms: _170  and  _172
REMARK   57  A    between atoms: _172  and  _173
REMARK   58  A    between atoms: _172  and  _175
REMARK   59  A    between atoms: _175  and  _176
REMARK   60  A    between atoms: _181  and  _183
REMARK   61  A    between atoms: _183  and  _184
REMARK   62  A    between atoms: _183  and  _186
REMARK   63  A    between atoms: _186  and  _187
REMARK   64  A    between atoms: _187  and  _188
REMARK   65  A    between atoms: _191  and  _193
REMARK   66  A    between atoms: _193  and  _194
REMARK   67  A    between atoms: _193  and  _196
REMARK   68  A    between atoms: _196  and  _197
REMARK   69  A    between atoms: _200  and  _202
REMARK   70  A    between atoms: _202  and  _203
REMARK   71  A    between atoms: _202  and  _205
REMARK   72  A    between atoms: _205  and  _206
REMARK   73  A    between atoms: _207  and  ZN_427
REMARK   74  A    between atoms: _211  and  _213
REMARK   75  A    between atoms: _213  and  _214
REMARK   76  A    between atoms: _213  and  _216
REMARK   77  A    between atoms: _216  and  _217
REMARK   78  A    between atoms: _220  and  _222
REMARK   79  A    between atoms: _222  and  _223
REMARK   80  A    between atoms: _222  and  _225
REMARK   81  A    between atoms: _228  and  _230
REMARK   82  A    between atoms: _230  and  _231
REMARK   83  A    between atoms: _230  and  _233
REMARK   84  A    between atoms: _233  and  _234
REMARK   85  A    between atoms: _239  and  _241
REMARK   86  A    between atoms: _241  and  _242
REMARK   87  A    between atoms: _241  and  _244
REMARK   88  A    between atoms: _244  and  _245
REMARK   89  A    between atoms: _251  and  _253
REMARK   90  A    between atoms: _253  and  _254
REMARK   91  A    between atoms: _256  and  _258
REMARK   92  A    between atoms: _258  and  _259
REMARK   93  A    between atoms: _258  and  _261
REMARK   94  A    between atoms: _264  and  _266
REMARK   95  A    between atoms: _266  and  _267
REMARK   96  A    between atoms: _266  and  _269
REMARK   97  A    between atoms: _269  and  _270
REMARK   98  A    between atoms: _273  and  _275
REMARK   99  A    between atoms: _275  and  _276
REMARK  100  A    between atoms: _279  and  _281
REMARK  101  A    between atoms: _281  and  _282
REMARK  102  A    between atoms: _281  and  _284
REMARK  103  A    between atoms: _287  and  _289
REMARK  104  A    between atoms: _289  and  _290
REMARK  105  A    between atoms: _289  and  _292
REMARK  106  A    between atoms: _292  and  _293
REMARK  107  A    between atoms: _296  and  _298
REMARK  108  A    between atoms: _298  and  _299
REMARK  109  A    between atoms: _301  and  _303
REMARK  110  A    between atoms: _303  and  _304
REMARK  111  A    between atoms: _303  and  _306
REMARK  112  A    between atoms: _306  and  _307
REMARK  113  A    between atoms: _309  and  _311
REMARK  114  A    between atoms: _311  and  _312
REMARK  115  A    between atoms: _311  and  _314
REMARK  116  A    between atoms: _314  and  _315
REMARK  117  A    between atoms: _318  and  _320
REMARK  118  A    between atoms: _320  and  _321
REMARK  119  A    between atoms: _320  and  _323
REMARK  120  A    between atoms: _323  and  _324
REMARK  121  A    between atoms: _327  and  _329
REMARK  122  A    between atoms: _329  and  _330
REMARK  123  A    between atoms: _329  and  _332
REMARK  124  A    between atoms: _332  and  _333
REMARK  125  A    between atoms: _337  and  _338
REMARK  126  A    between atoms: _344  and  _345
REMARK  127  A    between atoms: _350  and  _352
REMARK  128  A    between atoms: _352  and  _353
REMARK  129  A    between atoms: _352  and  _355
REMARK  130  A    between atoms: _355  and  _356
REMARK  131  A    between atoms: _359  and  _361
REMARK  132  A    between atoms: _361  and  _362
REMARK  133  A    between atoms: _361  and  _364
REMARK  134  A    between atoms: _364  and  _365
REMARK  135  A    between atoms: _368  and  _370
REMARK  136  A    between atoms: _370  and  _371
REMARK  137  A    between atoms: _370  and  _373
REMARK  138  A    between atoms: _375  and  _377
REMARK  139  A    between atoms: _377  and  _378
REMARK  140  A    between atoms: _377  and  _380
REMARK  141  A    between atoms: _383  and  _385
REMARK  142  A    between atoms: _385  and  _386
REMARK  143  A    between atoms: _385  and  _388
REMARK  144  A    between atoms: _388  and  _389
REMARK  145  A    between atoms: _399  and  _401
REMARK  146  A    between atoms: _401  and  _402
REMARK  147  A    between atoms: _401  and  _404
REMARK  148  A    between atoms: _404  and  _405
REMARK  149  A    between atoms: _410  and  _412
REMARK  150  A    between atoms: _412  and  _413
REMARK  151  A    between atoms: _412  and  _415
REMARK  152  A    between atoms: _415  and  _416
REMARK  153  A    between atoms: _416  and  _417
REMARK  154  A    between atoms: _417  and  _418
REMARK                            x       y       z     vdW  Elec       q    Type
REMARK                         _______ _______ _______ _____ _____    ______ ____
ROOT
ATOM      1  O   HOH     1      16.743  -3.234  11.580  0.00  0.00    +0.000 OA
ENDROOT
TORSDOF 0
REMARK  Name = ../refined-set-2016/4z1e/4z1e_pocket.pdb
REMARK  154 active torsions:
REMARK  status: ('A' for Active; 'I' for Inactive)
REMARK    1  A    between atoms: _1  and  _3
REMARK    2  A    between atoms: _3  and  _4
REMARK    3  A    between atoms: _3  and  _6
REMARK    4  A    between atoms: _6  and  _7
REMARK    5  A    between atoms: _17  and  _19
REMARK    6  A    between atoms: _19  and  _20
REMARK    7  A    between atoms: _19  and  _22
REMARK    8  A    between atoms: _22  and  _23
REMARK    9  A    between atoms: _28  and  _29
REMARK   10  A    between atoms: _31  and  _33
REMARK   11  A    between atoms: _33  and  _34
REMARK   12  A    between atoms: _33  and  _36
REMARK   13  A    between atoms: _36  and  _37
REMARK   14  A    between atoms: _40  and  _41
REMARK   15  A    between atoms: _46  and  _48
REMARK   16  A    between atoms: _48  and  _49
REMARK   17  A    between atoms: _48  and  _51
REMARK   18  A    between atoms: _51  and  _52
REMARK   19  A    between atoms: _55  and  _57
REMARK   20  A    between atoms: _57  and  _58
REMARK   21  A    between atoms: _57  and  _60
REMARK   22  A    between atoms: _60  and  _61
REMARK   23  A    between atoms: _66  and  _68
REMARK   24  A    between atoms: _68  and  _69
REMARK   25  A    between atoms: _72  and  _74
REMARK   26  A    between atoms: _74  and  _75
REMARK   27  A    between atoms: _74  and  _77
REMARK   28  A    between atoms: _77  and  _78
REMARK   29  A    between atoms: _83  and  _85
REMARK   30  A    between atoms: _85  and  _86
REMARK   31  A    between atoms: _85  and  _88
REMARK   32  A    between atoms: _88  and  _89
REMARK   33  A    between atoms: _89  and  _90
REMARK   34  A    between atoms: _93  and  _95
REMARK   35  A    between atoms: _95  and  _96
REMARK   36  A    between atoms: _95  and  _98
REMARK   37  A    between atoms: _98  and  _99
REMARK   38  A    between atoms: _102  and  _104
REMARK   39  A    between atoms: _104  and  _105
REMARK   40  A    between atoms: _104  and  _107
REMARK   41  A    between atoms: _107  and  _108
REMARK   42  A    between atoms: _108  and  _109
REMARK   43  A    between atoms: _114  and  _116
REMARK   44  A    between atoms: _116  and  _117
REMARK   45  A    between atoms: _116  and  _119
REMARK   46  A    between atoms: _119  and  _120
REMARK   47  A    between atoms: _126  and  _128
REMARK   48  A    between atoms: _139  and  _142
REMARK   49  A    between atoms: _142  and  _143
REMARK   50  A    between atoms: _151  and  _152
REMARK   51  A    between atoms: _160  and  _162
REMARK   52  A    between atoms: _162  and  _163
REMARK   53  A    between atoms: _162  and  _165
REMARK   54  A    between atoms: _165  and  _166
REMARK   55  A    between atoms: _166  and  _167
REMARK   56  A    between atoms: _170  and  _172
REMARK   57  A    between atoms: _172  and  _173
REMARK   58  A    between atoms: _172  and  _175
REMARK   59  A    between atoms: _175  and  _176
REMARK   60  A    between atoms: _181  and  _183
REMARK   61  A    between atoms: _183  and  _184
REMARK   62  A    between atoms: _183  and  _186
REMARK   63  A    between atoms: _186  and  _187
REMARK   64  A    between atoms: _187  and  _188
REMARK   65  A    between atoms: _191  and  _193
REMARK   66  A    between atoms: _193  and  _194
REMARK   67  A    between atoms: _193  and  _196
REMARK   68  A    between atoms: _196  and  _197
REMARK   69  A    between atoms: _200  and  _202
REMARK   70  A    between atoms: _202  and  _203
REMARK   71  A    between atoms: _202  and  _205
REMARK   72  A    between atoms: _205  and  _206
REMARK   73  A    between atoms: _207  and  ZN_427
REMARK   74  A    between atoms: _211  and  _213
REMARK   75  A    between atoms: _213  and  _214
REMARK   76  A    between atoms: _213  and  _216
REMARK   77  A    between atoms: _216  and  _217
REMARK   78  A    between atoms: _220  and  _222
REMARK   79  A    between atoms: _222  and  _223
REMARK   80  A    between atoms: _222  and  _225
REMARK   81  A    between atoms: _228  and  _230
REMARK   82  A    between atoms: _230  and  _231
REMARK   83  A    between atoms: _230  and  _233
REMARK   84  A    between atoms: _233  and  _234
REMARK   85  A    between atoms: _239  and  _241
REMARK   86  A    between atoms: _241  and  _242
REMARK   87  A    between atoms: _241  and  _244
REMARK   88  A    between atoms: _244  and  _245
REMARK   89  A    between atoms: _251  and  _253
REMARK   90  A    between atoms: _253  and  _254
REMARK   91  A    between atoms: _256  and  _258
REMARK   92  A    between atoms: _258  and  _259
REMARK   93  A    between atoms: _258  and  _261
REMARK   94  A    between atoms: _264  and  _266
REMARK   95  A    between atoms: _266  and  _267
REMARK   96  A    between atoms: _266  and  _269
REMARK   97  A    between atoms: _269  and  _270
REMARK   98  A    between atoms: _273  and  _275
REMARK   99  A    between atoms: _275  and  _276
REMARK  100  A    between atoms: _279  and  _281
REMARK  101  A    between atoms: _281  and  _282
REMARK  102  A    between atoms: _281  and  _284
REMARK  103  A    between atoms: _287  and  _289
REMARK  104  A    between atoms: _289  and  _290
REMARK  105  A    between atoms: _289  and  _292
REMARK  106  A    between atoms: _292  and  _293
REMARK  107  A    between atoms: _296  and  _298
REMARK  108  A    between atoms: _298  and  _299
REMARK  109  A    between atoms: _301  and  _303
REMARK  110  A    between atoms: _303  and  _304
REMARK  111  A    between atoms: _303  and  _306
REMARK  112  A    between atoms: _306  and  _307
REMARK  113  A    between atoms: _309  and  _311
REMARK  114  A    between atoms: _311  and  _312
REMARK  115  A    between atoms: _311  and  _314
REMARK  116  A    between atoms: _314  and  _315
REMARK  117  A    between atoms: _318  and  _320
REMARK  118  A    between atoms: _320  and  _321
REMARK  119  A    between atoms: _320  and  _323
REMARK  120  A    between atoms: _323  and  _324
REMARK  121  A    between atoms: _327  and  _329
REMARK  122  A    between atoms: _329  and  _330
REMARK  123  A    between atoms: _329  and  _332
REMARK  124  A    between atoms: _332  and  _333
REMARK  125  A    between atoms: _337  and  _338
REMARK  126  A    between atoms: _344  and  _345
REMARK  127  A    between atoms: _350  and  _352
REMARK  128  A    between atoms: _352  and  _353
REMARK  129  A    between atoms: _352  and  _355
REMARK  130  A    between atoms: _355  and  _356
REMARK  131  A    between atoms: _359  and  _361
REMARK  132  A    between atoms: _361  and  _362
REMARK  133  A    between atoms: _361  and  _364
REMARK  134  A    between atoms: _364  and  _365
REMARK  135  A    between atoms: _368  and  _370
REMARK  136  A    between atoms: _370  and  _371
REMARK  137  A    between atoms: _370  and  _373
REMARK  138  A    between atoms: _375  and  _377
REMARK  139  A    between atoms: _377  and  _378
REMARK  140  A    between atoms: _377  and  _380
REMARK  141  A    between atoms: _383  and  _385
REMARK  142  A    between atoms: _385  and  _386
REMARK  143  A    between atoms: _385  and  _388
REMARK  144  A    between atoms: _388  and  _389
REMARK  145  A    between atoms: _399  and  _401
REMARK  146  A    between atoms: _401  and  _402
REMARK  147  A    between atoms: _401  and  _404
REMARK  148  A    between atoms: _404  and  _405
REMARK  149  A    between atoms: _410  and  _412
REMARK  150  A    between atoms: _412  and  _413
REMARK  151  A    between atoms: _412  and  _415
REMARK  152  A    between atoms: _415  and  _416
REMARK  153  A    between atoms: _416  and  _417
REMARK  154  A    between atoms: _417  and  _418
REMARK                            x       y       z     vdW  Elec       q    Type
REMARK                         _______ _______ _______ _____ _____    ______ ____
ROOT
ATOM      1  O   HOH     1      19.829  -2.264  15.833  0.00  0.00    +0.000 OA
ENDROOT
TORSDOF 0
REMARK  Name = ../refined-set-2016/4z1e/4z1e_pocket.pdb
REMARK  154 active torsions:
REMARK  status: ('A' for Active; 'I' for Inactive)
REMARK    1  A    between atoms: _1  and  _3
REMARK    2  A    between atoms: _3  and  _4
REMARK    3  A    between atoms: _3  and  _6
REMARK    4  A    between atoms: _6  and  _7
REMARK    5  A    between atoms: _17  and  _19
REMARK    6  A    between atoms: _19  and  _20
REMARK    7  A    between atoms: _19  and  _22
REMARK    8  A    between atoms: _22  and  _23
REMARK    9  A    between atoms: _28  and  _29
REMARK   10  A    between atoms: _31  and  _33
REMARK   11  A    between atoms: _33  and  _34
REMARK   12  A    between atoms: _33  and  _36
REMARK   13  A    between atoms: _36  and  _37
REMARK   14  A    between atoms: _40  and  _41
REMARK   15  A    between atoms: _46  and  _48
REMARK   16  A    between atoms: _48  and  _49
REMARK   17  A    between atoms: _48  and  _51
REMARK   18  A    between atoms: _51  and  _52
REMARK   19  A    between atoms: _55  and  _57
REMARK   20  A    between atoms: _57  and  _58
REMARK   21  A    between atoms: _57  and  _60
REMARK   22  A    between atoms: _60  and  _61
REMARK   23  A    between atoms: _66  and  _68
REMARK   24  A    between atoms: _68  and  _69
REMARK   25  A    between atoms: _72  and  _74
REMARK   26  A    between atoms: _74  and  _75
REMARK   27  A    between atoms: _74  and  _77
REMARK   28  A    between atoms: _77  and  _78
REMARK   29  A    between atoms: _83  and  _85
REMARK   30  A    between atoms: _85  and  _86
REMARK   31  A    between atoms: _85  and  _88
REMARK   32  A    between atoms: _88  and  _89
REMARK   33  A    between atoms: _89  and  _90
REMARK   34  A    between atoms: _93  and  _95
REMARK   35  A    between atoms: _95  and  _96
REMARK   36  A    between atoms: _95  and  _98
REMARK   37  A    between atoms: _98  and  _99
REMARK   38  A    between atoms: _102  and  _104
REMARK   39  A    between atoms: _104  and  _105
REMARK   40  A    between atoms: _104  and  _107
REMARK   41  A    between atoms: _107  and  _108
REMARK   42  A    between atoms: _108  and  _109
REMARK   43  A    between atoms: _114  and  _116
REMARK   44  A    between atoms: _116  and  _117
REMARK   45  A    between atoms: _116  and  _119
REMARK   46  A    between atoms: _119  and  _120
REMARK   47  A    between atoms: _126  and  _128
REMARK   48  A    between atoms: _139  and  _142
REMARK   49  A    between atoms: _142  and  _143
REMARK   50  A    between atoms: _151  and  _152
REMARK   51  A    between atoms: _160  and  _162
REMARK   52  A    between atoms: _162  and  _163
REMARK   53  A    between atoms: _162  and  _165
REMARK   54  A    between atoms: _165  and  _166
REMARK   55  A    between atoms: _166  and  _167
REMARK   56  A    between atoms: _170  and  _172
REMARK   57  A    between atoms: _172  and  _173
REMARK   58  A    between atoms: _172  and  _175
REMARK   59  A    between atoms: _175  and  _176
REMARK   60  A    between atoms: _181  and  _183
REMARK   61  A    between atoms: _183  and  _184
REMARK   62  A    between atoms: _183  and  _186
REMARK   63  A    between atoms: _186  and  _187
REMARK   64  A    between atoms: _187  and  _188
REMARK   65  A    between atoms: _191  and  _193
REMARK   66  A    between atoms: _193  and  _194
REMARK   67  A    between atoms: _193  and  _196
REMARK   68  A    between atoms: _196  and  _197
REMARK   69  A    between atoms: _200  and  _202
REMARK   70  A    between atoms: _202  and  _203
REMARK   71  A    between atoms: _202  and  _205
REMARK   72  A    between atoms: _205  and  _206
REMARK   73  A    between atoms: _207  and  ZN_427
REMARK   74  A    between atoms: _211  and  _213
REMARK   75  A    between atoms: _213  and  _214
REMARK   76  A    between atoms: _213  and  _216
REMARK   77  A    between atoms: _216  and  _217
REMARK   78  A    between atoms: _220  and  _222
REMARK   79  A    between atoms: _222  and  _223
REMARK   80  A    between atoms: _222  and  _225
REMARK   81  A    between atoms: _228  and  _230
REMARK   82  A    between atoms: _230  and  _231
REMARK   83  A    between atoms: _230  and  _233
REMARK   84  A    between atoms: _233  and  _234
REMARK   85  A    between atoms: _239  and  _241
REMARK   86  A    between atoms: _241  and  _242
REMARK   87  A    between atoms: _241  and  _244
REMARK   88  A    between atoms: _244  and  _245
REMARK   89  A    between atoms: _251  and  _253
REMARK   90  A    between atoms: _253  and  _254
REMARK   91  A    between atoms: _256  and  _258
REMARK   92  A    between atoms: _258  and  _259
REMARK   93  A    between atoms: _258  and  _261
REMARK   94  A    between atoms: _264  and  _266
REMARK   95  A    between atoms: _266  and  _267
REMARK   96  A    between atoms: _266  and  _269
REMARK   97  A    between atoms: _269  and  _270
REMARK   98  A    between atoms: _273  and  _275
REMARK   99  A    between atoms: _275  and  _276
REMARK  100  A    between atoms: _279  and  _281
REMARK  101  A    between atoms: _281  and  _282
REMARK  102  A    between atoms: _281  and  _284
REMARK  103  A    between atoms: _287  and  _289
REMARK  104  A    between atoms: _289  and  _290
REMARK  105  A    between atoms: _289  and  _292
REMARK  106  A    between atoms: _292  and  _293
REMARK  107  A    between atoms: _296  and  _298
REMARK  108  A    between atoms: _298  and  _299
REMARK  109  A    between atoms: _301  and  _303
REMARK  110  A    between atoms: _303  and  _304
REMARK  111  A    between atoms: _303  and  _306
REMARK  112  A    between atoms: _306  and  _307
REMARK  113  A    between atoms: _309  and  _311
REMARK  114  A    between atoms: _311  and  _312
REMARK  115  A    between atoms: _311  and  _314
REMARK  116  A    between atoms: _314  and  _315
REMARK  117  A    between atoms: _318  and  _320
REMARK  118  A    between atoms: _320  and  _321
REMARK  119  A    between atoms: _320  and  _323
REMARK  120  A    between atoms: _323  and  _324
REMARK  121  A    between atoms: _327  and  _329
REMARK  122  A    between atoms: _329  and  _330
REMARK  123  A    between atoms: _329  and  _332
REMARK  124  A    between atoms: _332  and  _333
REMARK  125  A    between atoms: _337  and  _338
REMARK  126  A    between atoms: _344  and  _345
REMARK  127  A    between atoms: _350  and  _352
REMARK  128  A    between atoms: _352  and  _353
REMARK  129  A    between atoms: _352  and  _355
REMARK  130  A    between atoms: _355  and  _356
REMARK  131  A    between atoms: _359  and  _361
REMARK  132  A    between atoms: _361  and  _362
REMARK  133  A    between atoms: _361  and  _364
REMARK  134  A    between atoms: _364  and  _365
REMARK  135  A    between atoms: _368  and  _370
REMARK  136  A    between atoms: _370  and  _371
REMARK  137  A    between atoms: _370  and  _373
REMARK  138  A    between atoms: _375  and  _377
REMARK  139  A    between atoms: _377  and  _378
REMARK  140  A    between atoms: _377  and  _380
REMARK  141  A    between atoms: _383  and  _385
REMARK  142  A    between atoms: _385  and  _386
REMARK  143  A    between atoms: _385  and  _388
REMARK  144  A    between atoms: _388  and  _389
REMARK  145  A    between atoms: _399  and  _401
REMARK  146  A    between atoms: _401  and  _402
REMARK  147  A    between atoms: _401  and  _404
REMARK  148  A    between atoms: _404  and  _405
REMARK  149  A    between atoms: _410  and  _412
REMARK  150  A    between atoms: _412  and  _413
REMARK  151  A    between atoms: _412  and  _415
REMARK  152  A    between atoms: _415  and  _416
REMARK  153  A    between atoms: _416  and  _417
REMARK  154  A    between atoms: _417  and  _418
REMARK                            x       y       z     vdW  Elec       q    Type
REMARK                         _______ _______ _______ _____ _____    ______ ____
ROOT
ATOM      1  O   HOH     1      14.107   7.610   6.439  0.00  0.00    +0.000 OA
ENDROOT
TORSDOF 0
REMARK  Name = ../refined-set-2016/4z1e/4z1e_pocket.pdb
REMARK  154 active torsions:
REMARK  status: ('A' for Active; 'I' for Inactive)
REMARK    1  A    between atoms: _1  and  _3
REMARK    2  A    between atoms: _3  and  _4
REMARK    3  A    between atoms: _3  and  _6
REMARK    4  A    between atoms: _6  and  _7
REMARK    5  A    between atoms: _17  and  _19
REMARK    6  A    between atoms: _19  and  _20
REMARK    7  A    between atoms: _19  and  _22
REMARK    8  A    between atoms: _22  and  _23
REMARK    9  A    between atoms: _28  and  _29
REMARK   10  A    between atoms: _31  and  _33
REMARK   11  A    between atoms: _33  and  _34
REMARK   12  A    between atoms: _33  and  _36
REMARK   13  A    between atoms: _36  and  _37
REMARK   14  A    between atoms: _40  and  _41
REMARK   15  A    between atoms: _46  and  _48
REMARK   16  A    between atoms: _48  and  _49
REMARK   17  A    between atoms: _48  and  _51
REMARK   18  A    between atoms: _51  and  _52
REMARK   19  A    between atoms: _55  and  _57
REMARK   20  A    between atoms: _57  and  _58
REMARK   21  A    between atoms: _57  and  _60
REMARK   22  A    between atoms: _60  and  _61
REMARK   23  A    between atoms: _66  and  _68
REMARK   24  A    between atoms: _68  and  _69
REMARK   25  A    between atoms: _72  and  _74
REMARK   26  A    between atoms: _74  and  _75
REMARK   27  A    between atoms: _74  and  _77
REMARK   28  A    between atoms: _77  and  _78
REMARK   29  A    between atoms: _83  and  _85
REMARK   30  A    between atoms: _85  and  _86
REMARK   31  A    between atoms: _85  and  _88
REMARK   32  A    between atoms: _88  and  _89
REMARK   33  A    between atoms: _89  and  _90
REMARK   34  A    between atoms: _93  and  _95
REMARK   35  A    between atoms: _95  and  _96
REMARK   36  A    between atoms: _95  and  _98
REMARK   37  A    between atoms: _98  and  _99
REMARK   38  A    between atoms: _102  and  _104
REMARK   39  A    between atoms: _104  and  _105
REMARK   40  A    between atoms: _104  and  _107
REMARK   41  A    between atoms: _107  and  _108
REMARK   42  A    between atoms: _108  and  _109
REMARK   43  A    between atoms: _114  and  _116
REMARK   44  A    between atoms: _116  and  _117
REMARK   45  A    between atoms: _116  and  _119
REMARK   46  A    between atoms: _119  and  _120
REMARK   47  A    between atoms: _126  and  _128
REMARK   48  A    between atoms: _139  and  _142
REMARK   49  A    between atoms: _142  and  _143
REMARK   50  A    between atoms: _151  and  _152
REMARK   51  A    between atoms: _160  and  _162
REMARK   52  A    between atoms: _162  and  _163
REMARK   53  A    between atoms: _162  and  _165
REMARK   54  A    between atoms: _165  and  _166
REMARK   55  A    between atoms: _166  and  _167
REMARK   56  A    between atoms: _170  and  _172
REMARK   57  A    between atoms: _172  and  _173
REMARK   58  A    between atoms: _172  and  _175
REMARK   59  A    between atoms: _175  and  _176
REMARK   60  A    between atoms: _181  and  _183
REMARK   61  A    between atoms: _183  and  _184
REMARK   62  A    between atoms: _183  and  _186
REMARK   63  A    between atoms: _186  and  _187
REMARK   64  A    between atoms: _187  and  _188
REMARK   65  A    between atoms: _191  and  _193
REMARK   66  A    between atoms: _193  and  _194
REMARK   67  A    between atoms: _193  and  _196
REMARK   68  A    between atoms: _196  and  _197
REMARK   69  A    between atoms: _200  and  _202
REMARK   70  A    between atoms: _202  and  _203
REMARK   71  A    between atoms: _202  and  _205
REMARK   72  A    between atoms: _205  and  _206
REMARK   73  A    between atoms: _207  and  ZN_427
REMARK   74  A    between atoms: _211  and  _213
REMARK   75  A    between atoms: _213  and  _214
REMARK   76  A    between atoms: _213  and  _216
REMARK   77  A    between atoms: _216  and  _217
REMARK   78  A    between atoms: _220  and  _222
REMARK   79  A    between atoms: _222  and  _223
REMARK   80  A    between atoms: _222  and  _225
REMARK   81  A    between atoms: _228  and  _230
REMARK   82  A    between atoms: _230  and  _231
REMARK   83  A    between atoms: _230  and  _233
REMARK   84  A    between atoms: _233  and  _234
REMARK   85  A    between atoms: _239  and  _241
REMARK   86  A    between atoms: _241  and  _242
REMARK   87  A    between atoms: _241  and  _244
REMARK   88  A    between atoms: _244  and  _245
REMARK   89  A    between atoms: _251  and  _253
REMARK   90  A    between atoms: _253  and  _254
REMARK   91  A    between atoms: _256  and  _258
REMARK   92  A    between atoms: _258  and  _259
REMARK   93  A    between atoms: _258  and  _261
REMARK   94  A    between atoms: _264  and  _266
REMARK   95  A    between atoms: _266  and  _267
REMARK   96  A    between atoms: _266  and  _269
REMARK   97  A    between atoms: _269  and  _270
REMARK   98  A    between atoms: _273  and  _275
REMARK   99  A    between atoms: _275  and  _276
REMARK  100  A    between atoms: _279  and  _281
REMARK  101  A    between atoms: _281  and  _282
REMARK  102  A    between atoms: _281  and  _284
REMARK  103  A    between atoms: _287  and  _289
REMARK  104  A    between atoms: _289  and  _290
REMARK  105  A    between atoms: _289  and  _292
REMARK  106  A    between atoms: _292  and  _293
REMARK  107  A    between atoms: _296  and  _298
REMARK  108  A    between atoms: _298  and  _299
REMARK  109  A    between atoms: _301  and  _303
REMARK  110  A    between atoms: _303  and  _304
REMARK  111  A    between atoms: _303  and  _306
REMARK  112  A    between atoms: _306  and  _307
REMARK  113  A    between atoms: _309  and  _311
REMARK  114  A    between atoms: _311  and  _312
REMARK  115  A    between atoms: _311  and  _314
REMARK  116  A    between atoms: _314  and  _315
REMARK  117  A    between atoms: _318  and  _320
REMARK  118  A    between atoms: _320  and  _321
REMARK  119  A    between atoms: _320  and  _323
REMARK  120  A    between atoms: _323  and  _324
REMARK  121  A    between atoms: _327  and  _329
REMARK  122  A    between atoms: _329  and  _330
REMARK  123  A    between atoms: _329  and  _332
REMARK  124  A    between atoms: _332  and  _333
REMARK  125  A    between atoms: _337  and  _338
REMARK  126  A    between atoms: _344  and  _345
REMARK  127  A    between atoms: _350  and  _352
REMARK  128  A    between atoms: _352  and  _353
REMARK  129  A    between atoms: _352  and  _355
REMARK  130  A    between atoms: _355  and  _356
REMARK  131  A    between atoms: _359  and  _361
REMARK  132  A    between atoms: _361  and  _362
REMARK  133  A    between atoms: _361  and  _364
REMARK  134  A    between atoms: _364  and  _365
REMARK  135  A    between atoms: _368  and  _370
REMARK  136  A    between atoms: _370  and  _371
REMARK  137  A    between atoms: _370  and  _373
REMARK  138  A    between atoms: _375  and  _377
REMARK  139  A    between atoms: _377  and  _378
REMARK  140  A    between atoms: _377  and  _380
REMARK  141  A    between atoms: _383  and  _385
REMARK  142  A    between atoms: _385  and  _386
REMARK  143  A    between atoms: _385  and  _388
REMARK  144  A    between atoms: _388  and  _389
REMARK  145  A    between atoms: _399  and  _401
REMARK  146  A    between atoms: _401  and  _402
REMARK  147  A    between atoms: _401  and  _404
REMARK  148  A    between atoms: _404  and  _405
REMARK  149  A    between atoms: _410  and  _412
REMARK  150  A    between atoms: _412  and  _413
REMARK  151  A    between atoms: _412  and  _415
REMARK  152  A    between atoms: _415  and  _416
REMARK  153  A    between atoms: _416  and  _417
REMARK  154  A    between atoms: _417  and  _418
REMARK                            x       y       z     vdW  Elec       q    Type
REMARK                         _______ _______ _______ _____ _____    ______ ____
ROOT
ATOM      1  O   HOH     1      20.798  15.652  16.181  0.00  0.00    +0.000 OA
ENDROOT
TORSDOF 0
REMARK  Name = ../refined-set-2016/4z1e/4z1e_pocket.pdb
REMARK  154 active torsions:
REMARK  status: ('A' for Active; 'I' for Inactive)
REMARK    1  A    between atoms: _1  and  _3
REMARK    2  A    between atoms: _3  and  _4
REMARK    3  A    between atoms: _3  and  _6
REMARK    4  A    between atoms: _6  and  _7
REMARK    5  A    between atoms: _17  and  _19
REMARK    6  A    between atoms: _19  and  _20
REMARK    7  A    between atoms: _19  and  _22
REMARK    8  A    between atoms: _22  and  _23
REMARK    9  A    between atoms: _28  and  _29
REMARK   10  A    between atoms: _31  and  _33
REMARK   11  A    between atoms: _33  and  _34
REMARK   12  A    between atoms: _33  and  _36
REMARK   13  A    between atoms: _36  and  _37
REMARK   14  A    between atoms: _40  and  _41
REMARK   15  A    between atoms: _46  and  _48
REMARK   16  A    between atoms: _48  and  _49
REMARK   17  A    between atoms: _48  and  _51
REMARK   18  A    between atoms: _51  and  _52
REMARK   19  A    between atoms: _55  and  _57
REMARK   20  A    between atoms: _57  and  _58
REMARK   21  A    between atoms: _57  and  _60
REMARK   22  A    between atoms: _60  and  _61
REMARK   23  A    between atoms: _66  and  _68
REMARK   24  A    between atoms: _68  and  _69
REMARK   25  A    between atoms: _72  and  _74
REMARK   26  A    between atoms: _74  and  _75
REMARK   27  A    between atoms: _74  and  _77
REMARK   28  A    between atoms: _77  and  _78
REMARK   29  A    between atoms: _83  and  _85
REMARK   30  A    between atoms: _85  and  _86
REMARK   31  A    between atoms: _85  and  _88
REMARK   32  A    between atoms: _88  and  _89
REMARK   33  A    between atoms: _89  and  _90
REMARK   34  A    between atoms: _93  and  _95
REMARK   35  A    between atoms: _95  and  _96
REMARK   36  A    between atoms: _95  and  _98
REMARK   37  A    between atoms: _98  and  _99
REMARK   38  A    between atoms: _102  and  _104
REMARK   39  A    between atoms: _104  and  _105
REMARK   40  A    between atoms: _104  and  _107
REMARK   41  A    between atoms: _107  and  _108
REMARK   42  A    between atoms: _108  and  _109
REMARK   43  A    between atoms: _114  and  _116
REMARK   44  A    between atoms: _116  and  _117
REMARK   45  A    between atoms: _116  and  _119
REMARK   46  A    between atoms: _119  and  _120
REMARK   47  A    between atoms: _126  and  _128
REMARK   48  A    between atoms: _139  and  _142
REMARK   49  A    between atoms: _142  and  _143
REMARK   50  A    between atoms: _151  and  _152
REMARK   51  A    between atoms: _160  and  _162
REMARK   52  A    between atoms: _162  and  _163
REMARK   53  A    between atoms: _162  and  _165
REMARK   54  A    between atoms: _165  and  _166
REMARK   55  A    between atoms: _166  and  _167
REMARK   56  A    between atoms: _170  and  _172
REMARK   57  A    between atoms: _172  and  _173
REMARK   58  A    between atoms: _172  and  _175
REMARK   59  A    between atoms: _175  and  _176
REMARK   60  A    between atoms: _181  and  _183
REMARK   61  A    between atoms: _183  and  _184
REMARK   62  A    between atoms: _183  and  _186
REMARK   63  A    between atoms: _186  and  _187
REMARK   64  A    between atoms: _187  and  _188
REMARK   65  A    between atoms: _191  and  _193
REMARK   66  A    between atoms: _193  and  _194
REMARK   67  A    between atoms: _193  and  _196
REMARK   68  A    between atoms: _196  and  _197
REMARK   69  A    between atoms: _200  and  _202
REMARK   70  A    between atoms: _202  and  _203
REMARK   71  A    between atoms: _202  and  _205
REMARK   72  A    between atoms: _205  and  _206
REMARK   73  A    between atoms: _207  and  ZN_427
REMARK   74  A    between atoms: _211  and  _213
REMARK   75  A    between atoms: _213  and  _214
REMARK   76  A    between atoms: _213  and  _216
REMARK   77  A    between atoms: _216  and  _217
REMARK   78  A    between atoms: _220  and  _222
REMARK   79  A    between atoms: _222  and  _223
REMARK   80  A    between atoms: _222  and  _225
REMARK   81  A    between atoms: _228  and  _230
REMARK   82  A    between atoms: _230  and  _231
REMARK   83  A    between atoms: _230  and  _233
REMARK   84  A    between atoms: _233  and  _234
REMARK   85  A    between atoms: _239  and  _241
REMARK   86  A    between atoms: _241  and  _242
REMARK   87  A    between atoms: _241  and  _244
REMARK   88  A    between atoms: _244  and  _245
REMARK   89  A    between atoms: _251  and  _253
REMARK   90  A    between atoms: _253  and  _254
REMARK   91  A    between atoms: _256  and  _258
REMARK   92  A    between atoms: _258  and  _259
REMARK   93  A    between atoms: _258  and  _261
REMARK   94  A    between atoms: _264  and  _266
REMARK   95  A    between atoms: _266  and  _267
REMARK   96  A    between atoms: _266  and  _269
REMARK   97  A    between atoms: _269  and  _270
REMARK   98  A    between atoms: _273  and  _275
REMARK   99  A    between atoms: _275  and  _276
REMARK  100  A    between atoms: _279  and  _281
REMARK  101  A    between atoms: _281  and  _282
REMARK  102  A    between atoms: _281  and  _284
REMARK  103  A    between atoms: _287  and  _289
REMARK  104  A    between atoms: _289  and  _290
REMARK  105  A    between atoms: _289  and  _292
REMARK  106  A    between atoms: _292  and  _293
REMARK  107  A    between atoms: _296  and  _298
REMARK  108  A    between atoms: _298  and  _299
REMARK  109  A    between atoms: _301  and  _303
REMARK  110  A    between atoms: _303  and  _304
REMARK  111  A    between atoms: _303  and  _306
REMARK  112  A    between atoms: _306  and  _307
REMARK  113  A    between atoms: _309  and  _311
REMARK  114  A    between atoms: _311  and  _312
REMARK  115  A    between atoms: _311  and  _314
REMARK  116  A    between atoms: _314  and  _315
REMARK  117  A    between atoms: _318  and  _320
REMARK  118  A    between atoms: _320  and  _321
REMARK  119  A    between atoms: _320  and  _323
REMARK  120  A    between atoms: _323  and  _324
REMARK  121  A    between atoms: _327  and  _329
REMARK  122  A    between atoms: _329  and  _330
REMARK  123  A    between atoms: _329  and  _332
REMARK  124  A    between atoms: _332  and  _333
REMARK  125  A    between atoms: _337  and  _338
REMARK  126  A    between atoms: _344  and  _345
REMARK  127  A    between atoms: _350  and  _352
REMARK  128  A    between atoms: _352  and  _353
REMARK  129  A    between atoms: _352  and  _355
REMARK  130  A    between atoms: _355  and  _356
REMARK  131  A    between atoms: _359  and  _361
REMARK  132  A    between atoms: _361  and  _362
REMARK  133  A    between atoms: _361  and  _364
REMARK  134  A    between atoms: _364  and  _365
REMARK  135  A    between atoms: _368  and  _370
REMARK  136  A    between atoms: _370  and  _371
REMARK  137  A    between atoms: _370  and  _373
REMARK  138  A    between atoms: _375  and  _377
REMARK  139  A    between atoms: _377  and  _378
REMARK  140  A    between atoms: _377  and  _380
REMARK  141  A    between atoms: _383  and  _385
REMARK  142  A    between atoms: _385  and  _386
REMARK  143  A    between atoms: _385  and  _388
REMARK  144  A    between atoms: _388  and  _389
REMARK  145  A    between atoms: _399  and  _401
REMARK  146  A    between atoms: _401  and  _402
REMARK  147  A    between atoms: _401  and  _404
REMARK  148  A    between atoms: _404  and  _405
REMARK  149  A    between atoms: _410  and  _412
REMARK  150  A    between atoms: _412  and  _413
REMARK  151  A    between atoms: _412  and  _415
REMARK  152  A    between atoms: _415  and  _416
REMARK  153  A    between atoms: _416  and  _417
REMARK  154  A    between atoms: _417  and  _418
REMARK                            x       y       z     vdW  Elec       q    Type
REMARK                         _______ _______ _______ _____ _____    ______ ____
ROOT
ATOM      1  O   HOH     1      10.564  10.181   7.740  0.00  0.00    +0.000 OA
ENDROOT
TORSDOF 0
REMARK  Name = ../refined-set-2016/4z1e/4z1e_pocket.pdb
REMARK  154 active torsions:
REMARK  status: ('A' for Active; 'I' for Inactive)
REMARK    1  A    between atoms: _1  and  _3
REMARK    2  A    between atoms: _3  and  _4
REMARK    3  A    between atoms: _3  and  _6
REMARK    4  A    between atoms: _6  and  _7
REMARK    5  A    between atoms: _17  and  _19
REMARK    6  A    between atoms: _19  and  _20
REMARK    7  A    between atoms: _19  and  _22
REMARK    8  A    between atoms: _22  and  _23
REMARK    9  A    between atoms: _28  and  _29
REMARK   10  A    between atoms: _31  and  _33
REMARK   11  A    between atoms: _33  and  _34
REMARK   12  A    between atoms: _33  and  _36
REMARK   13  A    between atoms: _36  and  _37
REMARK   14  A    between atoms: _40  and  _41
REMARK   15  A    between atoms: _46  and  _48
REMARK   16  A    between atoms: _48  and  _49
REMARK   17  A    between atoms: _48  and  _51
REMARK   18  A    between atoms: _51  and  _52
REMARK   19  A    between atoms: _55  and  _57
REMARK   20  A    between atoms: _57  and  _58
REMARK   21  A    between atoms: _57  and  _60
REMARK   22  A    between atoms: _60  and  _61
REMARK   23  A    between atoms: _66  and  _68
REMARK   24  A    between atoms: _68  and  _69
REMARK   25  A    between atoms: _72  and  _74
REMARK   26  A    between atoms: _74  and  _75
REMARK   27  A    between atoms: _74  and  _77
REMARK   28  A    between atoms: _77  and  _78
REMARK   29  A    between atoms: _83  and  _85
REMARK   30  A    between atoms: _85  and  _86
REMARK   31  A    between atoms: _85  and  _88
REMARK   32  A    between atoms: _88  and  _89
REMARK   33  A    between atoms: _89  and  _90
REMARK   34  A    between atoms: _93  and  _95
REMARK   35  A    between atoms: _95  and  _96
REMARK   36  A    between atoms: _95  and  _98
REMARK   37  A    between atoms: _98  and  _99
REMARK   38  A    between atoms: _102  and  _104
REMARK   39  A    between atoms: _104  and  _105
REMARK   40  A    between atoms: _104  and  _107
REMARK   41  A    between atoms: _107  and  _108
REMARK   42  A    between atoms: _108  and  _109
REMARK   43  A    between atoms: _114  and  _116
REMARK   44  A    between atoms: _116  and  _117
REMARK   45  A    between atoms: _116  and  _119
REMARK   46  A    between atoms: _119  and  _120
REMARK   47  A    between atoms: _126  and  _128
REMARK   48  A    between atoms: _139  and  _142
REMARK   49  A    between atoms: _142  and  _143
REMARK   50  A    between atoms: _151  and  _152
REMARK   51  A    between atoms: _160  and  _162
REMARK   52  A    between atoms: _162  and  _163
REMARK   53  A    between atoms: _162  and  _165
REMARK   54  A    between atoms: _165  and  _166
REMARK   55  A    between atoms: _166  and  _167
REMARK   56  A    between atoms: _170  and  _172
REMARK   57  A    between atoms: _172  and  _173
REMARK   58  A    between atoms: _172  and  _175
REMARK   59  A    between atoms: _175  and  _176
REMARK   60  A    between atoms: _181  and  _183
REMARK   61  A    between atoms: _183  and  _184
REMARK   62  A    between atoms: _183  and  _186
REMARK   63  A    between atoms: _186  and  _187
REMARK   64  A    between atoms: _187  and  _188
REMARK   65  A    between atoms: _191  and  _193
REMARK   66  A    between atoms: _193  and  _194
REMARK   67  A    between atoms: _193  and  _196
REMARK   68  A    between atoms: _196  and  _197
REMARK   69  A    between atoms: _200  and  _202
REMARK   70  A    between atoms: _202  and  _203
REMARK   71  A    between atoms: _202  and  _205
REMARK   72  A    between atoms: _205  and  _206
REMARK   73  A    between atoms: _207  and  ZN_427
REMARK   74  A    between atoms: _211  and  _213
REMARK   75  A    between atoms: _213  and  _214
REMARK   76  A    between atoms: _213  and  _216
REMARK   77  A    between atoms: _216  and  _217
REMARK   78  A    between atoms: _220  and  _222
REMARK   79  A    between atoms: _222  and  _223
REMARK   80  A    between atoms: _222  and  _225
REMARK   81  A    between atoms: _228  and  _230
REMARK   82  A    between atoms: _230  and  _231
REMARK   83  A    between atoms: _230  and  _233
REMARK   84  A    between atoms: _233  and  _234
REMARK   85  A    between atoms: _239  and  _241
REMARK   86  A    between atoms: _241  and  _242
REMARK   87  A    between atoms: _241  and  _244
REMARK   88  A    between atoms: _244  and  _245
REMARK   89  A    between atoms: _251  and  _253
REMARK   90  A    between atoms: _253  and  _254
REMARK   91  A    between atoms: _256  and  _258
REMARK   92  A    between atoms: _258  and  _259
REMARK   93  A    between atoms: _258  and  _261
REMARK   94  A    between atoms: _264  and  _266
REMARK   95  A    between atoms: _266  and  _267
REMARK   96  A    between atoms: _266  and  _269
REMARK   97  A    between atoms: _269  and  _270
REMARK   98  A    between atoms: _273  and  _275
REMARK   99  A    between atoms: _275  and  _276
REMARK  100  A    between atoms: _279  and  _281
REMARK  101  A    between atoms: _281  and  _282
REMARK  102  A    between atoms: _281  and  _284
REMARK  103  A    between atoms: _287  and  _289
REMARK  104  A    between atoms: _289  and  _290
REMARK  105  A    between atoms: _289  and  _292
REMARK  106  A    between atoms: _292  and  _293
REMARK  107  A    between atoms: _296  and  _298
REMARK  108  A    between atoms: _298  and  _299
REMARK  109  A    between atoms: _301  and  _303
REMARK  110  A    between atoms: _303  and  _304
REMARK  111  A    between atoms: _303  and  _306
REMARK  112  A    between atoms: _306  and  _307
REMARK  113  A    between atoms: _309  and  _311
REMARK  114  A    between atoms: _311  and  _312
REMARK  115  A    between atoms: _311  and  _314
REMARK  116  A    between atoms: _314  and  _315
REMARK  117  A    between atoms: _318  and  _320
REMARK  118  A    between atoms: _320  and  _321
REMARK  119  A    between atoms: _320  and  _323
REMARK  120  A    between atoms: _323  and  _324
REMARK  121  A    between atoms: _327  and  _329
REMARK  122  A    between atoms: _329  and  _330
REMARK  123  A    between atoms: _329  and  _332
REMARK  124  A    between atoms: _332  and  _333
REMARK  125  A    between atoms: _337  and  _338
REMARK  126  A    between atoms: _344  and  _345
REMARK  127  A    between atoms: _350  and  _352
REMARK  128  A    between atoms: _352  and  _353
REMARK  129  A    between atoms: _352  and  _355
REMARK  130  A    between atoms: _355  and  _356
REMARK  131  A    between atoms: _359  and  _361
REMARK  132  A    between atoms: _361  and  _362
REMARK  133  A    between atoms: _361  and  _364
REMARK  134  A    between atoms: _364  and  _365
REMARK  135  A    between atoms: _368  and  _370
REMARK  136  A    between atoms: _370  and  _371
REMARK  137  A    between atoms: _370  and  _373
REMARK  138  A    between atoms: _375  and  _377
REMARK  139  A    between atoms: _377  and  _378
REMARK  140  A    between atoms: _377  and  _380
REMARK  141  A    between atoms: _383  and  _385
REMARK  142  A    between atoms: _385  and  _386
REMARK  143  A    between atoms: _385  and  _388
REMARK  144  A    between atoms: _388  and  _389
REMARK  145  A    between atoms: _399  and  _401
REMARK  146  A    between atoms: _401  and  _402
REMARK  147  A    between atoms: _401  and  _404
REMARK  148  A    between atoms: _404  and  _405
REMARK  149  A    between atoms: _410  and  _412
REMARK  150  A    between atoms: _412  and  _413
REMARK  151  A    between atoms: _412  and  _415
REMARK  152  A    between atoms: _415  and  _416
REMARK  153  A    between atoms: _416  and  _417
REMARK  154  A    between atoms: _417  and  _418
REMARK                            x       y       z     vdW  Elec       q    Type
REMARK                         _______ _______ _______ _____ _____    ______ ____
ROOT
ATOM      1  O   HOH     1      14.313   9.302  10.900  0.00  0.00    +0.000 OA
ENDROOT
TORSDOF 0
REMARK  Name = ../refined-set-2016/4z1e/4z1e_pocket.pdb
REMARK  154 active torsions:
REMARK  status: ('A' for Active; 'I' for Inactive)
REMARK    1  A    between atoms: _1  and  _3
REMARK    2  A    between atoms: _3  and  _4
REMARK    3  A    between atoms: _3  and  _6
REMARK    4  A    between atoms: _6  and  _7
REMARK    5  A    between atoms: _17  and  _19
REMARK    6  A    between atoms: _19  and  _20
REMARK    7  A    between atoms: _19  and  _22
REMARK    8  A    between atoms: _22  and  _23
REMARK    9  A    between atoms: _28  and  _29
REMARK   10  A    between atoms: _31  and  _33
REMARK   11  A    between atoms: _33  and  _34
REMARK   12  A    between atoms: _33  and  _36
REMARK   13  A    between atoms: _36  and  _37
REMARK   14  A    between atoms: _40  and  _41
REMARK   15  A    between atoms: _46  and  _48
REMARK   16  A    between atoms: _48  and  _49
REMARK   17  A    between atoms: _48  and  _51
REMARK   18  A    between atoms: _51  and  _52
REMARK   19  A    between atoms: _55  and  _57
REMARK   20  A    between atoms: _57  and  _58
REMARK   21  A    between atoms: _57  and  _60
REMARK   22  A    between atoms: _60  and  _61
REMARK   23  A    between atoms: _66  and  _68
REMARK   24  A    between atoms: _68  and  _69
REMARK   25  A    between atoms: _72  and  _74
REMARK   26  A    between atoms: _74  and  _75
REMARK   27  A    between atoms: _74  and  _77
REMARK   28  A    between atoms: _77  and  _78
REMARK   29  A    between atoms: _83  and  _85
REMARK   30  A    between atoms: _85  and  _86
REMARK   31  A    between atoms: _85  and  _88
REMARK   32  A    between atoms: _88  and  _89
REMARK   33  A    between atoms: _89  and  _90
REMARK   34  A    between atoms: _93  and  _95
REMARK   35  A    between atoms: _95  and  _96
REMARK   36  A    between atoms: _95  and  _98
REMARK   37  A    between atoms: _98  and  _99
REMARK   38  A    between atoms: _102  and  _104
REMARK   39  A    between atoms: _104  and  _105
REMARK   40  A    between atoms: _104  and  _107
REMARK   41  A    between atoms: _107  and  _108
REMARK   42  A    between atoms: _108  and  _109
REMARK   43  A    between atoms: _114  and  _116
REMARK   44  A    between atoms: _116  and  _117
REMARK   45  A    between atoms: _116  and  _119
REMARK   46  A    between atoms: _119  and  _120
REMARK   47  A    between atoms: _126  and  _128
REMARK   48  A    between atoms: _139  and  _142
REMARK   49  A    between atoms: _142  and  _143
REMARK   50  A    between atoms: _151  and  _152
REMARK   51  A    between atoms: _160  and  _162
REMARK   52  A    between atoms: _162  and  _163
REMARK   53  A    between atoms: _162  and  _165
REMARK   54  A    between atoms: _165  and  _166
REMARK   55  A    between atoms: _166  and  _167
REMARK   56  A    between atoms: _170  and  _172
REMARK   57  A    between atoms: _172  and  _173
REMARK   58  A    between atoms: _172  and  _175
REMARK   59  A    between atoms: _175  and  _176
REMARK   60  A    between atoms: _181  and  _183
REMARK   61  A    between atoms: _183  and  _184
REMARK   62  A    between atoms: _183  and  _186
REMARK   63  A    between atoms: _186  and  _187
REMARK   64  A    between atoms: _187  and  _188
REMARK   65  A    between atoms: _191  and  _193
REMARK   66  A    between atoms: _193  and  _194
REMARK   67  A    between atoms: _193  and  _196
REMARK   68  A    between atoms: _196  and  _197
REMARK   69  A    between atoms: _200  and  _202
REMARK   70  A    between atoms: _202  and  _203
REMARK   71  A    between atoms: _202  and  _205
REMARK   72  A    between atoms: _205  and  _206
REMARK   73  A    between atoms: _207  and  ZN_427
REMARK   74  A    between atoms: _211  and  _213
REMARK   75  A    between atoms: _213  and  _214
REMARK   76  A    between atoms: _213  and  _216
REMARK   77  A    between atoms: _216  and  _217
REMARK   78  A    between atoms: _220  and  _222
REMARK   79  A    between atoms: _222  and  _223
REMARK   80  A    between atoms: _222  and  _225
REMARK   81  A    between atoms: _228  and  _230
REMARK   82  A    between atoms: _230  and  _231
REMARK   83  A    between atoms: _230  and  _233
REMARK   84  A    between atoms: _233  and  _234
REMARK   85  A    between atoms: _239  and  _241
REMARK   86  A    between atoms: _241  and  _242
REMARK   87  A    between atoms: _241  and  _244
REMARK   88  A    between atoms: _244  and  _245
REMARK   89  A    between atoms: _251  and  _253
REMARK   90  A    between atoms: _253  and  _254
REMARK   91  A    between atoms: _256  and  _258
REMARK   92  A    between atoms: _258  and  _259
REMARK   93  A    between atoms: _258  and  _261
REMARK   94  A    between atoms: _264  and  _266
REMARK   95  A    between atoms: _266  and  _267
REMARK   96  A    between atoms: _266  and  _269
REMARK   97  A    between atoms: _269  and  _270
REMARK   98  A    between atoms: _273  and  _275
REMARK   99  A    between atoms: _275  and  _276
REMARK  100  A    between atoms: _279  and  _281
REMARK  101  A    between atoms: _281  and  _282
REMARK  102  A    between atoms: _281  and  _284
REMARK  103  A    between atoms: _287  and  _289
REMARK  104  A    between atoms: _289  and  _290
REMARK  105  A    between atoms: _289  and  _292
REMARK  106  A    between atoms: _292  and  _293
REMARK  107  A    between atoms: _296  and  _298
REMARK  108  A    between atoms: _298  and  _299
REMARK  109  A    between atoms: _301  and  _303
REMARK  110  A    between atoms: _303  and  _304
REMARK  111  A    between atoms: _303  and  _306
REMARK  112  A    between atoms: _306  and  _307
REMARK  113  A    between atoms: _309  and  _311
REMARK  114  A    between atoms: _311  and  _312
REMARK  115  A    between atoms: _311  and  _314
REMARK  116  A    between atoms: _314  and  _315
REMARK  117  A    between atoms: _318  and  _320
REMARK  118  A    between atoms: _320  and  _321
REMARK  119  A    between atoms: _320  and  _323
REMARK  120  A    between atoms: _323  and  _324
REMARK  121  A    between atoms: _327  and  _329
REMARK  122  A    between atoms: _329  and  _330
REMARK  123  A    between atoms: _329  and  _332
REMARK  124  A    between atoms: _332  and  _333
REMARK  125  A    between atoms: _337  and  _338
REMARK  126  A    between atoms: _344  and  _345
REMARK  127  A    between atoms: _350  and  _352
REMARK  128  A    between atoms: _352  and  _353
REMARK  129  A    between atoms: _352  and  _355
REMARK  130  A    between atoms: _355  and  _356
REMARK  131  A    between atoms: _359  and  _361
REMARK  132  A    between atoms: _361  and  _362
REMARK  133  A    between atoms: _361  and  _364
REMARK  134  A    between atoms: _364  and  _365
REMARK  135  A    between atoms: _368  and  _370
REMARK  136  A    between atoms: _370  and  _371
REMARK  137  A    between atoms: _370  and  _373
REMARK  138  A    between atoms: _375  and  _377
REMARK  139  A    between atoms: _377  and  _378
REMARK  140  A    between atoms: _377  and  _380
REMARK  141  A    between atoms: _383  and  _385
REMARK  142  A    between atoms: _385  and  _386
REMARK  143  A    between atoms: _385  and  _388
REMARK  144  A    between atoms: _388  and  _389
REMARK  145  A    between atoms: _399  and  _401
REMARK  146  A    between atoms: _401  and  _402
REMARK  147  A    between atoms: _401  and  _404
REMARK  148  A    between atoms: _404  and  _405
REMARK  149  A    between atoms: _410  and  _412
REMARK  150  A    between atoms: _412  and  _413
REMARK  151  A    between atoms: _412  and  _415
REMARK  152  A    between atoms: _415  and  _416
REMARK  153  A    between atoms: _416  and  _417
REMARK  154  A    between atoms: _417  and  _418
REMARK                            x       y       z     vdW  Elec       q    Type
REMARK                         _______ _______ _______ _____ _____    ______ ____
ROOT
ATOM      1  O   HOH     1      18.614  -1.309  11.367  0.00  0.00    +0.000 OA
ENDROOT
TORSDOF 0
REMARK  Name = ../refined-set-2016/4z1e/4z1e_pocket.pdb
REMARK  154 active torsions:
REMARK  status: ('A' for Active; 'I' for Inactive)
REMARK    1  A    between atoms: _1  and  _3
REMARK    2  A    between atoms: _3  and  _4
REMARK    3  A    between atoms: _3  and  _6
REMARK    4  A    between atoms: _6  and  _7
REMARK    5  A    between atoms: _17  and  _19
REMARK    6  A    between atoms: _19  and  _20
REMARK    7  A    between atoms: _19  and  _22
REMARK    8  A    between atoms: _22  and  _23
REMARK    9  A    between atoms: _28  and  _29
REMARK   10  A    between atoms: _31  and  _33
REMARK   11  A    between atoms: _33  and  _34
REMARK   12  A    between atoms: _33  and  _36
REMARK   13  A    between atoms: _36  and  _37
REMARK   14  A    between atoms: _40  and  _41
REMARK   15  A    between atoms: _46  and  _48
REMARK   16  A    between atoms: _48  and  _49
REMARK   17  A    between atoms: _48  and  _51
REMARK   18  A    between atoms: _51  and  _52
REMARK   19  A    between atoms: _55  and  _57
REMARK   20  A    between atoms: _57  and  _58
REMARK   21  A    between atoms: _57  and  _60
REMARK   22  A    between atoms: _60  and  _61
REMARK   23  A    between atoms: _66  and  _68
REMARK   24  A    between atoms: _68  and  _69
REMARK   25  A    between atoms: _72  and  _74
REMARK   26  A    between atoms: _74  and  _75
REMARK   27  A    between atoms: _74  and  _77
REMARK   28  A    between atoms: _77  and  _78
REMARK   29  A    between atoms: _83  and  _85
REMARK   30  A    between atoms: _85  and  _86
REMARK   31  A    between atoms: _85  and  _88
REMARK   32  A    between atoms: _88  and  _89
REMARK   33  A    between atoms: _89  and  _90
REMARK   34  A    between atoms: _93  and  _95
REMARK   35  A    between atoms: _95  and  _96
REMARK   36  A    between atoms: _95  and  _98
REMARK   37  A    between atoms: _98  and  _99
REMARK   38  A    between atoms: _102  and  _104
REMARK   39  A    between atoms: _104  and  _105
REMARK   40  A    between atoms: _104  and  _107
REMARK   41  A    between atoms: _107  and  _108
REMARK   42  A    between atoms: _108  and  _109
REMARK   43  A    between atoms: _114  and  _116
REMARK   44  A    between atoms: _116  and  _117
REMARK   45  A    between atoms: _116  and  _119
REMARK   46  A    between atoms: _119  and  _120
REMARK   47  A    between atoms: _126  and  _128
REMARK   48  A    between atoms: _139  and  _142
REMARK   49  A    between atoms: _142  and  _143
REMARK   50  A    between atoms: _151  and  _152
REMARK   51  A    between atoms: _160  and  _162
REMARK   52  A    between atoms: _162  and  _163
REMARK   53  A    between atoms: _162  and  _165
REMARK   54  A    between atoms: _165  and  _166
REMARK   55  A    between atoms: _166  and  _167
REMARK   56  A    between atoms: _170  and  _172
REMARK   57  A    between atoms: _172  and  _173
REMARK   58  A    between atoms: _172  and  _175
REMARK   59  A    between atoms: _175  and  _176
REMARK   60  A    between atoms: _181  and  _183
REMARK   61  A    between atoms: _183  and  _184
REMARK   62  A    between atoms: _183  and  _186
REMARK   63  A    between atoms: _186  and  _187
REMARK   64  A    between atoms: _187  and  _188
REMARK   65  A    between atoms: _191  and  _193
REMARK   66  A    between atoms: _193  and  _194
REMARK   67  A    between atoms: _193  and  _196
REMARK   68  A    between atoms: _196  and  _197
REMARK   69  A    between atoms: _200  and  _202
REMARK   70  A    between atoms: _202  and  _203
REMARK   71  A    between atoms: _202  and  _205
REMARK   72  A    between atoms: _205  and  _206
REMARK   73  A    between atoms: _207  and  ZN_427
REMARK   74  A    between atoms: _211  and  _213
REMARK   75  A    between atoms: _213  and  _214
REMARK   76  A    between atoms: _213  and  _216
REMARK   77  A    between atoms: _216  and  _217
REMARK   78  A    between atoms: _220  and  _222
REMARK   79  A    between atoms: _222  and  _223
REMARK   80  A    between atoms: _222  and  _225
REMARK   81  A    between atoms: _228  and  _230
REMARK   82  A    between atoms: _230  and  _231
REMARK   83  A    between atoms: _230  and  _233
REMARK   84  A    between atoms: _233  and  _234
REMARK   85  A    between atoms: _239  and  _241
REMARK   86  A    between atoms: _241  and  _242
REMARK   87  A    between atoms: _241  and  _244
REMARK   88  A    between atoms: _244  and  _245
REMARK   89  A    between atoms: _251  and  _253
REMARK   90  A    between atoms: _253  and  _254
REMARK   91  A    between atoms: _256  and  _258
REMARK   92  A    between atoms: _258  and  _259
REMARK   93  A    between atoms: _258  and  _261
REMARK   94  A    between atoms: _264  and  _266
REMARK   95  A    between atoms: _266  and  _267
REMARK   96  A    between atoms: _266  and  _269
REMARK   97  A    between atoms: _269  and  _270
REMARK   98  A    between atoms: _273  and  _275
REMARK   99  A    between atoms: _275  and  _276
REMARK  100  A    between atoms: _279  and  _281
REMARK  101  A    between atoms: _281  and  _282
REMARK  102  A    between atoms: _281  and  _284
REMARK  103  A    between atoms: _287  and  _289
REMARK  104  A    between atoms: _289  and  _290
REMARK  105  A    between atoms: _289  and  _292
REMARK  106  A    between atoms: _292  and  _293
REMARK  107  A    between atoms: _296  and  _298
REMARK  108  A    between atoms: _298  and  _299
REMARK  109  A    between atoms: _301  and  _303
REMARK  110  A    between atoms: _303  and  _304
REMARK  111  A    between atoms: _303  and  _306
REMARK  112  A    between atoms: _306  and  _307
REMARK  113  A    between atoms: _309  and  _311
REMARK  114  A    between atoms: _311  and  _312
REMARK  115  A    between atoms: _311  and  _314
REMARK  116  A    between atoms: _314  and  _315
REMARK  117  A    between atoms: _318  and  _320
REMARK  118  A    between atoms: _320  and  _321
REMARK  119  A    between atoms: _320  and  _323
REMARK  120  A    between atoms: _323  and  _324
REMARK  121  A    between atoms: _327  and  _329
REMARK  122  A    between atoms: _329  and  _330
REMARK  123  A    between atoms: _329  and  _332
REMARK  124  A    between atoms: _332  and  _333
REMARK  125  A    between atoms: _337  and  _338
REMARK  126  A    between atoms: _344  and  _345
REMARK  127  A    between atoms: _350  and  _352
REMARK  128  A    between atoms: _352  and  _353
REMARK  129  A    between atoms: _352  and  _355
REMARK  130  A    between atoms: _355  and  _356
REMARK  131  A    between atoms: _359  and  _361
REMARK  132  A    between atoms: _361  and  _362
REMARK  133  A    between atoms: _361  and  _364
REMARK  134  A    between atoms: _364  and  _365
REMARK  135  A    between atoms: _368  and  _370
REMARK  136  A    between atoms: _370  and  _371
REMARK  137  A    between atoms: _370  and  _373
REMARK  138  A    between atoms: _375  and  _377
REMARK  139  A    between atoms: _377  and  _378
REMARK  140  A    between atoms: _377  and  _380
REMARK  141  A    between atoms: _383  and  _385
REMARK  142  A    between atoms: _385  and  _386
REMARK  143  A    between atoms: _385  and  _388
REMARK  144  A    between atoms: _388  and  _389
REMARK  145  A    between atoms: _399  and  _401
REMARK  146  A    between atoms: _401  and  _402
REMARK  147  A    between atoms: _401  and  _404
REMARK  148  A    between atoms: _404  and  _405
REMARK  149  A    between atoms: _410  and  _412
REMARK  150  A    between atoms: _412  and  _413
REMARK  151  A    between atoms: _412  and  _415
REMARK  152  A    between atoms: _415  and  _416
REMARK  153  A    between atoms: _416  and  _417
REMARK  154  A    between atoms: _417  and  _418
REMARK                            x       y       z     vdW  Elec       q    Type
REMARK                         _______ _______ _______ _____ _____    ______ ____
ROOT
ATOM      1  O   HOH     1      15.443  17.188  11.921  0.00  0.00    +0.000 OA
ENDROOT
TORSDOF 0
REMARK  Name = ../refined-set-2016/4z1e/4z1e_pocket.pdb
REMARK  154 active torsions:
REMARK  status: ('A' for Active; 'I' for Inactive)
REMARK    1  A    between atoms: _1  and  _3
REMARK    2  A    between atoms: _3  and  _4
REMARK    3  A    between atoms: _3  and  _6
REMARK    4  A    between atoms: _6  and  _7
REMARK    5  A    between atoms: _17  and  _19
REMARK    6  A    between atoms: _19  and  _20
REMARK    7  A    between atoms: _19  and  _22
REMARK    8  A    between atoms: _22  and  _23
REMARK    9  A    between atoms: _28  and  _29
REMARK   10  A    between atoms: _31  and  _33
REMARK   11  A    between atoms: _33  and  _34
REMARK   12  A    between atoms: _33  and  _36
REMARK   13  A    between atoms: _36  and  _37
REMARK   14  A    between atoms: _40  and  _41
REMARK   15  A    between atoms: _46  and  _48
REMARK   16  A    between atoms: _48  and  _49
REMARK   17  A    between atoms: _48  and  _51
REMARK   18  A    between atoms: _51  and  _52
REMARK   19  A    between atoms: _55  and  _57
REMARK   20  A    between atoms: _57  and  _58
REMARK   21  A    between atoms: _57  and  _60
REMARK   22  A    between atoms: _60  and  _61
REMARK   23  A    between atoms: _66  and  _68
REMARK   24  A    between atoms: _68  and  _69
REMARK   25  A    between atoms: _72  and  _74
REMARK   26  A    between atoms: _74  and  _75
REMARK   27  A    between atoms: _74  and  _77
REMARK   28  A    between atoms: _77  and  _78
REMARK   29  A    between atoms: _83  and  _85
REMARK   30  A    between atoms: _85  and  _86
REMARK   31  A    between atoms: _85  and  _88
REMARK   32  A    between atoms: _88  and  _89
REMARK   33  A    between atoms: _89  and  _90
REMARK   34  A    between atoms: _93  and  _95
REMARK   35  A    between atoms: _95  and  _96
REMARK   36  A    between atoms: _95  and  _98
REMARK   37  A    between atoms: _98  and  _99
REMARK   38  A    between atoms: _102  and  _104
REMARK   39  A    between atoms: _104  and  _105
REMARK   40  A    between atoms: _104  and  _107
REMARK   41  A    between atoms: _107  and  _108
REMARK   42  A    between atoms: _108  and  _109
REMARK   43  A    between atoms: _114  and  _116
REMARK   44  A    between atoms: _116  and  _117
REMARK   45  A    between atoms: _116  and  _119
REMARK   46  A    between atoms: _119  and  _120
REMARK   47  A    between atoms: _126  and  _128
REMARK   48  A    between atoms: _139  and  _142
REMARK   49  A    between atoms: _142  and  _143
REMARK   50  A    between atoms: _151  and  _152
REMARK   51  A    between atoms: _160  and  _162
REMARK   52  A    between atoms: _162  and  _163
REMARK   53  A    between atoms: _162  and  _165
REMARK   54  A    between atoms: _165  and  _166
REMARK   55  A    between atoms: _166  and  _167
REMARK   56  A    between atoms: _170  and  _172
REMARK   57  A    between atoms: _172  and  _173
REMARK   58  A    between atoms: _172  and  _175
REMARK   59  A    between atoms: _175  and  _176
REMARK   60  A    between atoms: _181  and  _183
REMARK   61  A    between atoms: _183  and  _184
REMARK   62  A    between atoms: _183  and  _186
REMARK   63  A    between atoms: _186  and  _187
REMARK   64  A    between atoms: _187  and  _188
REMARK   65  A    between atoms: _191  and  _193
REMARK   66  A    between atoms: _193  and  _194
REMARK   67  A    between atoms: _193  and  _196
REMARK   68  A    between atoms: _196  and  _197
REMARK   69  A    between atoms: _200  and  _202
REMARK   70  A    between atoms: _202  and  _203
REMARK   71  A    between atoms: _202  and  _205
REMARK   72  A    between atoms: _205  and  _206
REMARK   73  A    between atoms: _207  and  ZN_427
REMARK   74  A    between atoms: _211  and  _213
REMARK   75  A    between atoms: _213  and  _214
REMARK   76  A    between atoms: _213  and  _216
REMARK   77  A    between atoms: _216  and  _217
REMARK   78  A    between atoms: _220  and  _222
REMARK   79  A    between atoms: _222  and  _223
REMARK   80  A    between atoms: _222  and  _225
REMARK   81  A    between atoms: _228  and  _230
REMARK   82  A    between atoms: _230  and  _231
REMARK   83  A    between atoms: _230  and  _233
REMARK   84  A    between atoms: _233  and  _234
REMARK   85  A    between atoms: _239  and  _241
REMARK   86  A    between atoms: _241  and  _242
REMARK   87  A    between atoms: _241  and  _244
REMARK   88  A    between atoms: _244  and  _245
REMARK   89  A    between atoms: _251  and  _253
REMARK   90  A    between atoms: _253  and  _254
REMARK   91  A    between atoms: _256  and  _258
REMARK   92  A    between atoms: _258  and  _259
REMARK   93  A    between atoms: _258  and  _261
REMARK   94  A    between atoms: _264  and  _266
REMARK   95  A    between atoms: _266  and  _267
REMARK   96  A    between atoms: _266  and  _269
REMARK   97  A    between atoms: _269  and  _270
REMARK   98  A    between atoms: _273  and  _275
REMARK   99  A    between atoms: _275  and  _276
REMARK  100  A    between atoms: _279  and  _281
REMARK  101  A    between atoms: _281  and  _282
REMARK  102  A    between atoms: _281  and  _284
REMARK  103  A    between atoms: _287  and  _289
REMARK  104  A    between atoms: _289  and  _290
REMARK  105  A    between atoms: _289  and  _292
REMARK  106  A    between atoms: _292  and  _293
REMARK  107  A    between atoms: _296  and  _298
REMARK  108  A    between atoms: _298  and  _299
REMARK  109  A    between atoms: _301  and  _303
REMARK  110  A    between atoms: _303  and  _304
REMARK  111  A    between atoms: _303  and  _306
REMARK  112  A    between atoms: _306  and  _307
REMARK  113  A    between atoms: _309  and  _311
REMARK  114  A    between atoms: _311  and  _312
REMARK  115  A    between atoms: _311  and  _314
REMARK  116  A    between atoms: _314  and  _315
REMARK  117  A    between atoms: _318  and  _320
REMARK  118  A    between atoms: _320  and  _321
REMARK  119  A    between atoms: _320  and  _323
REMARK  120  A    between atoms: _323  and  _324
REMARK  121  A    between atoms: _327  and  _329
REMARK  122  A    between atoms: _329  and  _330
REMARK  123  A    between atoms: _329  and  _332
REMARK  124  A    between atoms: _332  and  _333
REMARK  125  A    between atoms: _337  and  _338
REMARK  126  A    between atoms: _344  and  _345
REMARK  127  A    between atoms: _350  and  _352
REMARK  128  A    between atoms: _352  and  _353
REMARK  129  A    between atoms: _352  and  _355
REMARK  130  A    between atoms: _355  and  _356
REMARK  131  A    between atoms: _359  and  _361
REMARK  132  A    between atoms: _361  and  _362
REMARK  133  A    between atoms: _361  and  _364
REMARK  134  A    between atoms: _364  and  _365
REMARK  135  A    between atoms: _368  and  _370
REMARK  136  A    between atoms: _370  and  _371
REMARK  137  A    between atoms: _370  and  _373
REMARK  138  A    between atoms: _375  and  _377
REMARK  139  A    between atoms: _377  and  _378
REMARK  140  A    between atoms: _377  and  _380
REMARK  141  A    between atoms: _383  and  _385
REMARK  142  A    between atoms: _385  and  _386
REMARK  143  A    between atoms: _385  and  _388
REMARK  144  A    between atoms: _388  and  _389
REMARK  145  A    between atoms: _399  and  _401
REMARK  146  A    between atoms: _401  and  _402
REMARK  147  A    between atoms: _401  and  _404
REMARK  148  A    between atoms: _404  and  _405
REMARK  149  A    between atoms: _410  and  _412
REMARK  150  A    between atoms: _412  and  _413
REMARK  151  A    between atoms: _412  and  _415
REMARK  152  A    between atoms: _415  and  _416
REMARK  153  A    between atoms: _416  and  _417
REMARK  154  A    between atoms: _417  and  _418
REMARK                            x       y       z     vdW  Elec       q    Type
REMARK                         _______ _______ _______ _____ _____    ______ ____
ROOT
ATOM      1  O   HOH     1      19.803   3.222  11.360  0.00  0.00    +0.000 OA
ENDROOT
TORSDOF 0
REMARK  Name = ../refined-set-2016/4z1e/4z1e_pocket.pdb
REMARK  154 active torsions:
REMARK  status: ('A' for Active; 'I' for Inactive)
REMARK    1  A    between atoms: _1  and  _3
REMARK    2  A    between atoms: _3  and  _4
REMARK    3  A    between atoms: _3  and  _6
REMARK    4  A    between atoms: _6  and  _7
REMARK    5  A    between atoms: _17  and  _19
REMARK    6  A    between atoms: _19  and  _20
REMARK    7  A    between atoms: _19  and  _22
REMARK    8  A    between atoms: _22  and  _23
REMARK    9  A    between atoms: _28  and  _29
REMARK   10  A    between atoms: _31  and  _33
REMARK   11  A    between atoms: _33  and  _34
REMARK   12  A    between atoms: _33  and  _36
REMARK   13  A    between atoms: _36  and  _37
REMARK   14  A    between atoms: _40  and  _41
REMARK   15  A    between atoms: _46  and  _48
REMARK   16  A    between atoms: _48  and  _49
REMARK   17  A    between atoms: _48  and  _51
REMARK   18  A    between atoms: _51  and  _52
REMARK   19  A    between atoms: _55  and  _57
REMARK   20  A    between atoms: _57  and  _58
REMARK   21  A    between atoms: _57  and  _60
REMARK   22  A    between atoms: _60  and  _61
REMARK   23  A    between atoms: _66  and  _68
REMARK   24  A    between atoms: _68  and  _69
REMARK   25  A    between atoms: _72  and  _74
REMARK   26  A    between atoms: _74  and  _75
REMARK   27  A    between atoms: _74  and  _77
REMARK   28  A    between atoms: _77  and  _78
REMARK   29  A    between atoms: _83  and  _85
REMARK   30  A    between atoms: _85  and  _86
REMARK   31  A    between atoms: _85  and  _88
REMARK   32  A    between atoms: _88  and  _89
REMARK   33  A    between atoms: _89  and  _90
REMARK   34  A    between atoms: _93  and  _95
REMARK   35  A    between atoms: _95  and  _96
REMARK   36  A    between atoms: _95  and  _98
REMARK   37  A    between atoms: _98  and  _99
REMARK   38  A    between atoms: _102  and  _104
REMARK   39  A    between atoms: _104  and  _105
REMARK   40  A    between atoms: _104  and  _107
REMARK   41  A    between atoms: _107  and  _108
REMARK   42  A    between atoms: _108  and  _109
REMARK   43  A    between atoms: _114  and  _116
REMARK   44  A    between atoms: _116  and  _117
REMARK   45  A    between atoms: _116  and  _119
REMARK   46  A    between atoms: _119  and  _120
REMARK   47  A    between atoms: _126  and  _128
REMARK   48  A    between atoms: _139  and  _142
REMARK   49  A    between atoms: _142  and  _143
REMARK   50  A    between atoms: _151  and  _152
REMARK   51  A    between atoms: _160  and  _162
REMARK   52  A    between atoms: _162  and  _163
REMARK   53  A    between atoms: _162  and  _165
REMARK   54  A    between atoms: _165  and  _166
REMARK   55  A    between atoms: _166  and  _167
REMARK   56  A    between atoms: _170  and  _172
REMARK   57  A    between atoms: _172  and  _173
REMARK   58  A    between atoms: _172  and  _175
REMARK   59  A    between atoms: _175  and  _176
REMARK   60  A    between atoms: _181  and  _183
REMARK   61  A    between atoms: _183  and  _184
REMARK   62  A    between atoms: _183  and  _186
REMARK   63  A    between atoms: _186  and  _187
REMARK   64  A    between atoms: _187  and  _188
REMARK   65  A    between atoms: _191  and  _193
REMARK   66  A    between atoms: _193  and  _194
REMARK   67  A    between atoms: _193  and  _196
REMARK   68  A    between atoms: _196  and  _197
REMARK   69  A    between atoms: _200  and  _202
REMARK   70  A    between atoms: _202  and  _203
REMARK   71  A    between atoms: _202  and  _205
REMARK   72  A    between atoms: _205  and  _206
REMARK   73  A    between atoms: _207  and  ZN_427
REMARK   74  A    between atoms: _211  and  _213
REMARK   75  A    between atoms: _213  and  _214
REMARK   76  A    between atoms: _213  and  _216
REMARK   77  A    between atoms: _216  and  _217
REMARK   78  A    between atoms: _220  and  _222
REMARK   79  A    between atoms: _222  and  _223
REMARK   80  A    between atoms: _222  and  _225
REMARK   81  A    between atoms: _228  and  _230
REMARK   82  A    between atoms: _230  and  _231
REMARK   83  A    between atoms: _230  and  _233
REMARK   84  A    between atoms: _233  and  _234
REMARK   85  A    between atoms: _239  and  _241
REMARK   86  A    between atoms: _241  and  _242
REMARK   87  A    between atoms: _241  and  _244
REMARK   88  A    between atoms: _244  and  _245
REMARK   89  A    between atoms: _251  and  _253
REMARK   90  A    between atoms: _253  and  _254
REMARK   91  A    between atoms: _256  and  _258
REMARK   92  A    between atoms: _258  and  _259
REMARK   93  A    between atoms: _258  and  _261
REMARK   94  A    between atoms: _264  and  _266
REMARK   95  A    between atoms: _266  and  _267
REMARK   96  A    between atoms: _266  and  _269
REMARK   97  A    between atoms: _269  and  _270
REMARK   98  A    between atoms: _273  and  _275
REMARK   99  A    between atoms: _275  and  _276
REMARK  100  A    between atoms: _279  and  _281
REMARK  101  A    between atoms: _281  and  _282
REMARK  102  A    between atoms: _281  and  _284
REMARK  103  A    between atoms: _287  and  _289
REMARK  104  A    between atoms: _289  and  _290
REMARK  105  A    between atoms: _289  and  _292
REMARK  106  A    between atoms: _292  and  _293
REMARK  107  A    between atoms: _296  and  _298
REMARK  108  A    between atoms: _298  and  _299
REMARK  109  A    between atoms: _301  and  _303
REMARK  110  A    between atoms: _303  and  _304
REMARK  111  A    between atoms: _303  and  _306
REMARK  112  A    between atoms: _306  and  _307
REMARK  113  A    between atoms: _309  and  _311
REMARK  114  A    between atoms: _311  and  _312
REMARK  115  A    between atoms: _311  and  _314
REMARK  116  A    between atoms: _314  and  _315
REMARK  117  A    between atoms: _318  and  _320
REMARK  118  A    between atoms: _320  and  _321
REMARK  119  A    between atoms: _320  and  _323
REMARK  120  A    between atoms: _323  and  _324
REMARK  121  A    between atoms: _327  and  _329
REMARK  122  A    between atoms: _329  and  _330
REMARK  123  A    between atoms: _329  and  _332
REMARK  124  A    between atoms: _332  and  _333
REMARK  125  A    between atoms: _337  and  _338
REMARK  126  A    between atoms: _344  and  _345
REMARK  127  A    between atoms: _350  and  _352
REMARK  128  A    between atoms: _352  and  _353
REMARK  129  A    between atoms: _352  and  _355
REMARK  130  A    between atoms: _355  and  _356
REMARK  131  A    between atoms: _359  and  _361
REMARK  132  A    between atoms: _361  and  _362
REMARK  133  A    between atoms: _361  and  _364
REMARK  134  A    between atoms: _364  and  _365
REMARK  135  A    between atoms: _368  and  _370
REMARK  136  A    between atoms: _370  and  _371
REMARK  137  A    between atoms: _370  and  _373
REMARK  138  A    between atoms: _375  and  _377
REMARK  139  A    between atoms: _377  and  _378
REMARK  140  A    between atoms: _377  and  _380
REMARK  141  A    between atoms: _383  and  _385
REMARK  142  A    between atoms: _385  and  _386
REMARK  143  A    between atoms: _385  and  _388
REMARK  144  A    between atoms: _388  and  _389
REMARK  145  A    between atoms: _399  and  _401
REMARK  146  A    between atoms: _401  and  _402
REMARK  147  A    between atoms: _401  and  _404
REMARK  148  A    between atoms: _404  and  _405
REMARK  149  A    between atoms: _410  and  _412
REMARK  150  A    between atoms: _412  and  _413
REMARK  151  A    between atoms: _412  and  _415
REMARK  152  A    between atoms: _415  and  _416
REMARK  153  A    between atoms: _416  and  _417
REMARK  154  A    between atoms: _417  and  _418
REMARK                            x       y       z     vdW  Elec       q    Type
REMARK                         _______ _______ _______ _____ _____    ______ ____
ROOT
ATOM      1  O   HOH     1      17.242   1.777  13.240  0.00  0.00    +0.000 OA
ENDROOT
TORSDOF 0
REMARK  Name = ../refined-set-2016/4z1e/4z1e_pocket.pdb
REMARK  154 active torsions:
REMARK  status: ('A' for Active; 'I' for Inactive)
REMARK    1  A    between atoms: _1  and  _3
REMARK    2  A    between atoms: _3  and  _4
REMARK    3  A    between atoms: _3  and  _6
REMARK    4  A    between atoms: _6  and  _7
REMARK    5  A    between atoms: _17  and  _19
REMARK    6  A    between atoms: _19  and  _20
REMARK    7  A    between atoms: _19  and  _22
REMARK    8  A    between atoms: _22  and  _23
REMARK    9  A    between atoms: _28  and  _29
REMARK   10  A    between atoms: _31  and  _33
REMARK   11  A    between atoms: _33  and  _34
REMARK   12  A    between atoms: _33  and  _36
REMARK   13  A    between atoms: _36  and  _37
REMARK   14  A    between atoms: _40  and  _41
REMARK   15  A    between atoms: _46  and  _48
REMARK   16  A    between atoms: _48  and  _49
REMARK   17  A    between atoms: _48  and  _51
REMARK   18  A    between atoms: _51  and  _52
REMARK   19  A    between atoms: _55  and  _57
REMARK   20  A    between atoms: _57  and  _58
REMARK   21  A    between atoms: _57  and  _60
REMARK   22  A    between atoms: _60  and  _61
REMARK   23  A    between atoms: _66  and  _68
REMARK   24  A    between atoms: _68  and  _69
REMARK   25  A    between atoms: _72  and  _74
REMARK   26  A    between atoms: _74  and  _75
REMARK   27  A    between atoms: _74  and  _77
REMARK   28  A    between atoms: _77  and  _78
REMARK   29  A    between atoms: _83  and  _85
REMARK   30  A    between atoms: _85  and  _86
REMARK   31  A    between atoms: _85  and  _88
REMARK   32  A    between atoms: _88  and  _89
REMARK   33  A    between atoms: _89  and  _90
REMARK   34  A    between atoms: _93  and  _95
REMARK   35  A    between atoms: _95  and  _96
REMARK   36  A    between atoms: _95  and  _98
REMARK   37  A    between atoms: _98  and  _99
REMARK   38  A    between atoms: _102  and  _104
REMARK   39  A    between atoms: _104  and  _105
REMARK   40  A    between atoms: _104  and  _107
REMARK   41  A    between atoms: _107  and  _108
REMARK   42  A    between atoms: _108  and  _109
REMARK   43  A    between atoms: _114  and  _116
REMARK   44  A    between atoms: _116  and  _117
REMARK   45  A    between atoms: _116  and  _119
REMARK   46  A    between atoms: _119  and  _120
REMARK   47  A    between atoms: _126  and  _128
REMARK   48  A    between atoms: _139  and  _142
REMARK   49  A    between atoms: _142  and  _143
REMARK   50  A    between atoms: _151  and  _152
REMARK   51  A    between atoms: _160  and  _162
REMARK   52  A    between atoms: _162  and  _163
REMARK   53  A    between atoms: _162  and  _165
REMARK   54  A    between atoms: _165  and  _166
REMARK   55  A    between atoms: _166  and  _167
REMARK   56  A    between atoms: _170  and  _172
REMARK   57  A    between atoms: _172  and  _173
REMARK   58  A    between atoms: _172  and  _175
REMARK   59  A    between atoms: _175  and  _176
REMARK   60  A    between atoms: _181  and  _183
REMARK   61  A    between atoms: _183  and  _184
REMARK   62  A    between atoms: _183  and  _186
REMARK   63  A    between atoms: _186  and  _187
REMARK   64  A    between atoms: _187  and  _188
REMARK   65  A    between atoms: _191  and  _193
REMARK   66  A    between atoms: _193  and  _194
REMARK   67  A    between atoms: _193  and  _196
REMARK   68  A    between atoms: _196  and  _197
REMARK   69  A    between atoms: _200  and  _202
REMARK   70  A    between atoms: _202  and  _203
REMARK   71  A    between atoms: _202  and  _205
REMARK   72  A    between atoms: _205  and  _206
REMARK   73  A    between atoms: _207  and  ZN_427
REMARK   74  A    between atoms: _211  and  _213
REMARK   75  A    between atoms: _213  and  _214
REMARK   76  A    between atoms: _213  and  _216
REMARK   77  A    between atoms: _216  and  _217
REMARK   78  A    between atoms: _220  and  _222
REMARK   79  A    between atoms: _222  and  _223
REMARK   80  A    between atoms: _222  and  _225
REMARK   81  A    between atoms: _228  and  _230
REMARK   82  A    between atoms: _230  and  _231
REMARK   83  A    between atoms: _230  and  _233
REMARK   84  A    between atoms: _233  and  _234
REMARK   85  A    between atoms: _239  and  _241
REMARK   86  A    between atoms: _241  and  _242
REMARK   87  A    between atoms: _241  and  _244
REMARK   88  A    between atoms: _244  and  _245
REMARK   89  A    between atoms: _251  and  _253
REMARK   90  A    between atoms: _253  and  _254
REMARK   91  A    between atoms: _256  and  _258
REMARK   92  A    between atoms: _258  and  _259
REMARK   93  A    between atoms: _258  and  _261
REMARK   94  A    between atoms: _264  and  _266
REMARK   95  A    between atoms: _266  and  _267
REMARK   96  A    between atoms: _266  and  _269
REMARK   97  A    between atoms: _269  and  _270
REMARK   98  A    between atoms: _273  and  _275
REMARK   99  A    between atoms: _275  and  _276
REMARK  100  A    between atoms: _279  and  _281
REMARK  101  A    between atoms: _281  and  _282
REMARK  102  A    between atoms: _281  and  _284
REMARK  103  A    between atoms: _287  and  _289
REMARK  104  A    between atoms: _289  and  _290
REMARK  105  A    between atoms: _289  and  _292
REMARK  106  A    between atoms: _292  and  _293
REMARK  107  A    between atoms: _296  and  _298
REMARK  108  A    between atoms: _298  and  _299
REMARK  109  A    between atoms: _301  and  _303
REMARK  110  A    between atoms: _303  and  _304
REMARK  111  A    between atoms: _303  and  _306
REMARK  112  A    between atoms: _306  and  _307
REMARK  113  A    between atoms: _309  and  _311
REMARK  114  A    between atoms: _311  and  _312
REMARK  115  A    between atoms: _311  and  _314
REMARK  116  A    between atoms: _314  and  _315
REMARK  117  A    between atoms: _318  and  _320
REMARK  118  A    between atoms: _320  and  _321
REMARK  119  A    between atoms: _320  and  _323
REMARK  120  A    between atoms: _323  and  _324
REMARK  121  A    between atoms: _327  and  _329
REMARK  122  A    between atoms: _329  and  _330
REMARK  123  A    between atoms: _329  and  _332
REMARK  124  A    between atoms: _332  and  _333
REMARK  125  A    between atoms: _337  and  _338
REMARK  126  A    between atoms: _344  and  _345
REMARK  127  A    between atoms: _350  and  _352
REMARK  128  A    between atoms: _352  and  _353
REMARK  129  A    between atoms: _352  and  _355
REMARK  130  A    between atoms: _355  and  _356
REMARK  131  A    between atoms: _359  and  _361
REMARK  132  A    between atoms: _361  and  _362
REMARK  133  A    between atoms: _361  and  _364
REMARK  134  A    between atoms: _364  and  _365
REMARK  135  A    between atoms: _368  and  _370
REMARK  136  A    between atoms: _370  and  _371
REMARK  137  A    between atoms: _370  and  _373
REMARK  138  A    between atoms: _375  and  _377
REMARK  139  A    between atoms: _377  and  _378
REMARK  140  A    between atoms: _377  and  _380
REMARK  141  A    between atoms: _383  and  _385
REMARK  142  A    between atoms: _385  and  _386
REMARK  143  A    between atoms: _385  and  _388
REMARK  144  A    between atoms: _388  and  _389
REMARK  145  A    between atoms: _399  and  _401
REMARK  146  A    between atoms: _401  and  _402
REMARK  147  A    between atoms: _401  and  _404
REMARK  148  A    between atoms: _404  and  _405
REMARK  149  A    between atoms: _410  and  _412
REMARK  150  A    between atoms: _412  and  _413
REMARK  151  A    between atoms: _412  and  _415
REMARK  152  A    between atoms: _415  and  _416
REMARK  153  A    between atoms: _416  and  _417
REMARK  154  A    between atoms: _417  and  _418
REMARK                            x       y       z     vdW  Elec       q    Type
REMARK                         _______ _______ _______ _____ _____    ______ ____
ROOT
ATOM      1  O   HOH     1      18.041   1.287  10.532  0.00  0.00    +0.000 OA
ENDROOT
TORSDOF 0
REMARK  Name = ../refined-set-2016/4z1e/4z1e_pocket.pdb
REMARK  154 active torsions:
REMARK  status: ('A' for Active; 'I' for Inactive)
REMARK    1  A    between atoms: _1  and  _3
REMARK    2  A    between atoms: _3  and  _4
REMARK    3  A    between atoms: _3  and  _6
REMARK    4  A    between atoms: _6  and  _7
REMARK    5  A    between atoms: _17  and  _19
REMARK    6  A    between atoms: _19  and  _20
REMARK    7  A    between atoms: _19  and  _22
REMARK    8  A    between atoms: _22  and  _23
REMARK    9  A    between atoms: _28  and  _29
REMARK   10  A    between atoms: _31  and  _33
REMARK   11  A    between atoms: _33  and  _34
REMARK   12  A    between atoms: _33  and  _36
REMARK   13  A    between atoms: _36  and  _37
REMARK   14  A    between atoms: _40  and  _41
REMARK   15  A    between atoms: _46  and  _48
REMARK   16  A    between atoms: _48  and  _49
REMARK   17  A    between atoms: _48  and  _51
REMARK   18  A    between atoms: _51  and  _52
REMARK   19  A    between atoms: _55  and  _57
REMARK   20  A    between atoms: _57  and  _58
REMARK   21  A    between atoms: _57  and  _60
REMARK   22  A    between atoms: _60  and  _61
REMARK   23  A    between atoms: _66  and  _68
REMARK   24  A    between atoms: _68  and  _69
REMARK   25  A    between atoms: _72  and  _74
REMARK   26  A    between atoms: _74  and  _75
REMARK   27  A    between atoms: _74  and  _77
REMARK   28  A    between atoms: _77  and  _78
REMARK   29  A    between atoms: _83  and  _85
REMARK   30  A    between atoms: _85  and  _86
REMARK   31  A    between atoms: _85  and  _88
REMARK   32  A    between atoms: _88  and  _89
REMARK   33  A    between atoms: _89  and  _90
REMARK   34  A    between atoms: _93  and  _95
REMARK   35  A    between atoms: _95  and  _96
REMARK   36  A    between atoms: _95  and  _98
REMARK   37  A    between atoms: _98  and  _99
REMARK   38  A    between atoms: _102  and  _104
REMARK   39  A    between atoms: _104  and  _105
REMARK   40  A    between atoms: _104  and  _107
REMARK   41  A    between atoms: _107  and  _108
REMARK   42  A    between atoms: _108  and  _109
REMARK   43  A    between atoms: _114  and  _116
REMARK   44  A    between atoms: _116  and  _117
REMARK   45  A    between atoms: _116  and  _119
REMARK   46  A    between atoms: _119  and  _120
REMARK   47  A    between atoms: _126  and  _128
REMARK   48  A    between atoms: _139  and  _142
REMARK   49  A    between atoms: _142  and  _143
REMARK   50  A    between atoms: _151  and  _152
REMARK   51  A    between atoms: _160  and  _162
REMARK   52  A    between atoms: _162  and  _163
REMARK   53  A    between atoms: _162  and  _165
REMARK   54  A    between atoms: _165  and  _166
REMARK   55  A    between atoms: _166  and  _167
REMARK   56  A    between atoms: _170  and  _172
REMARK   57  A    between atoms: _172  and  _173
REMARK   58  A    between atoms: _172  and  _175
REMARK   59  A    between atoms: _175  and  _176
REMARK   60  A    between atoms: _181  and  _183
REMARK   61  A    between atoms: _183  and  _184
REMARK   62  A    between atoms: _183  and  _186
REMARK   63  A    between atoms: _186  and  _187
REMARK   64  A    between atoms: _187  and  _188
REMARK   65  A    between atoms: _191  and  _193
REMARK   66  A    between atoms: _193  and  _194
REMARK   67  A    between atoms: _193  and  _196
REMARK   68  A    between atoms: _196  and  _197
REMARK   69  A    between atoms: _200  and  _202
REMARK   70  A    between atoms: _202  and  _203
REMARK   71  A    between atoms: _202  and  _205
REMARK   72  A    between atoms: _205  and  _206
REMARK   73  A    between atoms: _207  and  ZN_427
REMARK   74  A    between atoms: _211  and  _213
REMARK   75  A    between atoms: _213  and  _214
REMARK   76  A    between atoms: _213  and  _216
REMARK   77  A    between atoms: _216  and  _217
REMARK   78  A    between atoms: _220  and  _222
REMARK   79  A    between atoms: _222  and  _223
REMARK   80  A    between atoms: _222  and  _225
REMARK   81  A    between atoms: _228  and  _230
REMARK   82  A    between atoms: _230  and  _231
REMARK   83  A    between atoms: _230  and  _233
REMARK   84  A    between atoms: _233  and  _234
REMARK   85  A    between atoms: _239  and  _241
REMARK   86  A    between atoms: _241  and  _242
REMARK   87  A    between atoms: _241  and  _244
REMARK   88  A    between atoms: _244  and  _245
REMARK   89  A    between atoms: _251  and  _253
REMARK   90  A    between atoms: _253  and  _254
REMARK   91  A    between atoms: _256  and  _258
REMARK   92  A    between atoms: _258  and  _259
REMARK   93  A    between atoms: _258  and  _261
REMARK   94  A    between atoms: _264  and  _266
REMARK   95  A    between atoms: _266  and  _267
REMARK   96  A    between atoms: _266  and  _269
REMARK   97  A    between atoms: _269  and  _270
REMARK   98  A    between atoms: _273  and  _275
REMARK   99  A    between atoms: _275  and  _276
REMARK  100  A    between atoms: _279  and  _281
REMARK  101  A    between atoms: _281  and  _282
REMARK  102  A    between atoms: _281  and  _284
REMARK  103  A    between atoms: _287  and  _289
REMARK  104  A    between atoms: _289  and  _290
REMARK  105  A    between atoms: _289  and  _292
REMARK  106  A    between atoms: _292  and  _293
REMARK  107  A    between atoms: _296  and  _298
REMARK  108  A    between atoms: _298  and  _299
REMARK  109  A    between atoms: _301  and  _303
REMARK  110  A    between atoms: _303  and  _304
REMARK  111  A    between atoms: _303  and  _306
REMARK  112  A    between atoms: _306  and  _307
REMARK  113  A    between atoms: _309  and  _311
REMARK  114  A    between atoms: _311  and  _312
REMARK  115  A    between atoms: _311  and  _314
REMARK  116  A    between atoms: _314  and  _315
REMARK  117  A    between atoms: _318  and  _320
REMARK  118  A    between atoms: _320  and  _321
REMARK  119  A    between atoms: _320  and  _323
REMARK  120  A    between atoms: _323  and  _324
REMARK  121  A    between atoms: _327  and  _329
REMARK  122  A    between atoms: _329  and  _330
REMARK  123  A    between atoms: _329  and  _332
REMARK  124  A    between atoms: _332  and  _333
REMARK  125  A    between atoms: _337  and  _338
REMARK  126  A    between atoms: _344  and  _345
REMARK  127  A    between atoms: _350  and  _352
REMARK  128  A    between atoms: _352  and  _353
REMARK  129  A    between atoms: _352  and  _355
REMARK  130  A    between atoms: _355  and  _356
REMARK  131  A    between atoms: _359  and  _361
REMARK  132  A    between atoms: _361  and  _362
REMARK  133  A    between atoms: _361  and  _364
REMARK  134  A    between atoms: _364  and  _365
REMARK  135  A    between atoms: _368  and  _370
REMARK  136  A    between atoms: _370  and  _371
REMARK  137  A    between atoms: _370  and  _373
REMARK  138  A    between atoms: _375  and  _377
REMARK  139  A    between atoms: _377  and  _378
REMARK  140  A    between atoms: _377  and  _380
REMARK  141  A    between atoms: _383  and  _385
REMARK  142  A    between atoms: _385  and  _386
REMARK  143  A    between atoms: _385  and  _388
REMARK  144  A    between atoms: _388  and  _389
REMARK  145  A    between atoms: _399  and  _401
REMARK  146  A    between atoms: _401  and  _402
REMARK  147  A    between atoms: _401  and  _404
REMARK  148  A    between atoms: _404  and  _405
REMARK  149  A    between atoms: _410  and  _412
REMARK  150  A    between atoms: _412  and  _413
REMARK  151  A    between atoms: _412  and  _415
REMARK  152  A    between atoms: _415  and  _416
REMARK  153  A    between atoms: _416  and  _417
REMARK  154  A    between atoms: _417  and  _418
REMARK                            x       y       z     vdW  Elec       q    Type
REMARK                         _______ _______ _______ _____ _____    ______ ____
ROOT
ATOM      1  O   HOH     1      13.148   9.088   8.416  0.00  0.00    +0.000 OA
ENDROOT
TORSDOF 0
