REMARK  Name = ../refined-set-2016/2jkp/2jkp_pocket.pdb
REMARK  168 active torsions:
REMARK  status: ('A' for Active; 'I' for Inactive)
REMARK    1  A    between atoms: _1  and  _3
REMARK    2  A    between atoms: _3  and  _4
REMARK    3  A    between atoms: _3  and  _6
REMARK    4  A    between atoms: _6  and  _7
REMARK    5  A    between atoms: _7  and  _8
REMARK    6  A    between atoms: _11  and  _13
REMARK    7  A    between atoms: _13  and  _14
REMARK    8  A    between atoms: _13  and  _16
REMARK    9  A    between atoms: _16  and  _17
REMARK   10  A    between atoms: _19  and  _21
REMARK   11  A    between atoms: _21  and  _22
REMARK   12  A    between atoms: _21  and  _24
REMARK   13  A    between atoms: _24  and  _25
REMARK   14  A    between atoms: _30  and  _31
REMARK   15  A    between atoms: _33  and  _35
REMARK   16  A    between atoms: _35  and  _36
REMARK   17  A    between atoms: _35  and  _38
REMARK   18  A    between atoms: _41  and  _43
REMARK   19  A    between atoms: _43  and  _44
REMARK   20  A    between atoms: _43  and  _46
REMARK   21  A    between atoms: _46  and  _47
REMARK   22  A    between atoms: _57  and  _59
REMARK   23  A    between atoms: _59  and  _60
REMARK   24  A    between atoms: _59  and  _62
REMARK   25  A    between atoms: _62  and  _63
REMARK   26  A    between atoms: _73  and  _75
REMARK   27  A    between atoms: _75  and  _76
REMARK   28  A    between atoms: _75  and  _78
REMARK   29  A    between atoms: _78  and  _79
REMARK   30  A    between atoms: _79  and  _80
REMARK   31  A    between atoms: _82  and  _84
REMARK   32  A    between atoms: _84  and  _85
REMARK   33  A    between atoms: _84  and  _87
REMARK   34  A    between atoms: _87  and  _88
REMARK   35  A    between atoms: _91  and  _93
REMARK   36  A    between atoms: _93  and  _94
REMARK   37  A    between atoms: _93  and  _96
REMARK   38  A    between atoms: _96  and  _97
REMARK   39  A    between atoms: _107  and  _109
REMARK   40  A    between atoms: _109  and  _110
REMARK   41  A    between atoms: _109  and  _112
REMARK   42  A    between atoms: _112  and  _113
REMARK   43  A    between atoms: _116  and  _118
REMARK   44  A    between atoms: _118  and  _119
REMARK   45  A    between atoms: _118  and  _121
REMARK   46  A    between atoms: _121  and  _122
REMARK   47  A    between atoms: _122  and  _123
REMARK   48  A    between atoms: _126  and  _128
REMARK   49  A    between atoms: _128  and  _129
REMARK   50  A    between atoms: _131  and  _133
REMARK   51  A    between atoms: _133  and  _134
REMARK   52  A    between atoms: _133  and  _136
REMARK   53  A    between atoms: _136  and  _137
REMARK   54  A    between atoms: _147  and  _149
REMARK   55  A    between atoms: _149  and  _150
REMARK   56  A    between atoms: _149  and  _152
REMARK   57  A    between atoms: _152  and  _153
REMARK   58  A    between atoms: _163  and  _165
REMARK   59  A    between atoms: _165  and  _166
REMARK   60  A    between atoms: _165  and  _168
REMARK   61  A    between atoms: _168  and  _169
REMARK   62  A    between atoms: _175  and  _177
REMARK   63  A    between atoms: _177  and  _178
REMARK   64  A    between atoms: _177  and  _180
REMARK   65  A    between atoms: _180  and  _181
REMARK   66  A    between atoms: _187  and  _189
REMARK   67  A    between atoms: _189  and  _190
REMARK   68  A    between atoms: _189  and  _192
REMARK   69  A    between atoms: _192  and  _193
REMARK   70  A    between atoms: _198  and  _200
REMARK   71  A    between atoms: _200  and  _201
REMARK   72  A    between atoms: _200  and  _203
REMARK   73  A    between atoms: _203  and  _204
REMARK   74  A    between atoms: _209  and  _211
REMARK   75  A    between atoms: _211  and  _212
REMARK   76  A    between atoms: _211  and  _214
REMARK   77  A    between atoms: _214  and  _215
REMARK   78  A    between atoms: _215  and  _216
REMARK   79  A    between atoms: _219  and  _221
REMARK   80  A    between atoms: _221  and  _222
REMARK   81  A    between atoms: _221  and  _224
REMARK   82  A    between atoms: _224  and  _225
REMARK   83  A    between atoms: _228  and  _230
REMARK   84  A    between atoms: _230  and  _231
REMARK   85  A    between atoms: _230  and  _233
REMARK   86  A    between atoms: _233  and  _234
REMARK   87  A    between atoms: _236  and  _238
REMARK   88  A    between atoms: _238  and  _239
REMARK   89  A    between atoms: _238  and  _241
REMARK   90  A    between atoms: _241  and  _242
REMARK   91  A    between atoms: _242  and  _243
REMARK   92  A    between atoms: _243  and  _244
REMARK   93  A    between atoms: _244  and  _245
REMARK   94  A    between atoms: _249  and  _251
REMARK   95  A    between atoms: _251  and  _252
REMARK   96  A    between atoms: _251  and  _254
REMARK   97  A    between atoms: _254  and  _255
REMARK   98  A    between atoms: _257  and  _259
REMARK   99  A    between atoms: _259  and  _260
REMARK  100  A    between atoms: _262  and  _264
REMARK  101  A    between atoms: _264  and  _265
REMARK  102  A    between atoms: _264  and  _267
REMARK  103  A    between atoms: _267  and  _268
REMARK  104  A    between atoms: _273  and  _274
REMARK  105  A    between atoms: _276  and  _278
REMARK  106  A    between atoms: _278  and  _279
REMARK  107  A    between atoms: _278  and  _281
REMARK  108  A    between atoms: _284  and  _286
REMARK  109  A    between atoms: _286  and  _287
REMARK  110  A    between atoms: _289  and  _291
REMARK  111  A    between atoms: _291  and  _292
REMARK  112  A    between atoms: _291  and  _294
REMARK  113  A    between atoms: _294  and  _295
REMARK  114  A    between atoms: _300  and  _302
REMARK  115  A    between atoms: _302  and  _303
REMARK  116  A    between atoms: _306  and  _308
REMARK  117  A    between atoms: _308  and  _309
REMARK  118  A    between atoms: _308  and  _311
REMARK  119  A    between atoms: _311  and  _312
REMARK  120  A    between atoms: _317  and  _319
REMARK  121  A    between atoms: _319  and  _320
REMARK  122  A    between atoms: _319  and  _322
REMARK  123  A    between atoms: _322  and  _323
REMARK  124  A    between atoms: _323  and  _324
REMARK  125  A    between atoms: _327  and  _329
REMARK  126  A    between atoms: _329  and  _330
REMARK  127  A    between atoms: _329  and  _332
REMARK  128  A    between atoms: _332  and  _333
REMARK  129  A    between atoms: _333  and  _334
REMARK  130  A    between atoms: _334  and  _335
REMARK  131  A    between atoms: _335  and  CA_419
REMARK  132  A    between atoms: _337  and  _339
REMARK  133  A    between atoms: _339  and  _340
REMARK  134  A    between atoms: _339  and  _342
REMARK  135  A    between atoms: _342  and  _343
REMARK  136  A    between atoms: _345  and  _347
REMARK  137  A    between atoms: _347  and  _348
REMARK  138  A    between atoms: _351  and  _353
REMARK  139  A    between atoms: _353  and  _354
REMARK  140  A    between atoms: _356  and  _358
REMARK  141  A    between atoms: _358  and  _359
REMARK  142  A    between atoms: _358  and  _361
REMARK  143  A    between atoms: _361  and  _362
REMARK  144  A    between atoms: _362  and  _363
REMARK  145  A    between atoms: _363  and  _365
REMARK  146  A    between atoms: _365  and  CA_419
REMARK  147  A    between atoms: _366  and  _368
REMARK  148  A    between atoms: _368  and  _369
REMARK  149  A    between atoms: _368  and  _371
REMARK  150  A    between atoms: _371  and  _372
REMARK  151  A    between atoms: _377  and  _378
REMARK  152  A    between atoms: _380  and  _382
REMARK  153  A    between atoms: _382  and  _383
REMARK  154  A    between atoms: _382  and  _385
REMARK  155  A    between atoms: _385  and  _386
REMARK  156  A    between atoms: _392  and  _394
REMARK  157  A    between atoms: _394  and  _395
REMARK  158  A    between atoms: _394  and  _397
REMARK  159  A    between atoms: _397  and  _398
REMARK  160  A    between atoms: _401  and  _403
REMARK  161  A    between atoms: _403  and  _404
REMARK  162  A    between atoms: _403  and  _406
REMARK  163  A    between atoms: _406  and  _407
REMARK  164  A    between atoms: _410  and  _412
REMARK  165  A    between atoms: _412  and  _413
REMARK  166  A    between atoms: _412  and  _415
REMARK  167  A    between atoms: _415  and  _416
REMARK  168  A    between atoms: _416  and  _417
REMARK                            x       y       z     vdW  Elec       q    Type
REMARK                         _______ _______ _______ _____ _____    ______ ____
ROOT
ATOM      1  CA  GLU A   1      17.473  51.676  74.822  0.00  0.00    +0.134 C 
ENDROOT
BRANCH   1   2
ATOM      2  N   GLU A   1      16.195  51.869  74.156  0.00  0.00    -0.239 NA
ATOM      3  H   GLU A   1      16.175  52.053  73.133  0.00  0.00    +0.142 HD
ENDBRANCH   1   2
BRANCH   1   4
ATOM      4  C   GLU A   1      18.012  52.943  75.535  0.00  0.00    +0.224 C 
ATOM      5  O   GLU A   1      19.193  53.278  75.433  0.00  0.00    -0.287 OA
ENDBRANCH   1   4
BRANCH   1   6
ATOM      6  CB  GLU A   1      18.495  51.168  73.792  0.00  0.00    +0.037 C 
BRANCH   6   7
ATOM      7  CG  GLU A   1      18.141  49.756  73.335  0.00  0.00    +0.116 C 
BRANCH   7   8
ATOM      8  CD  GLU A   1      19.134  49.192  72.385  0.00  0.00    +0.365 C 
ATOM      9  OE2 GLU A   1      19.106  47.977  72.278  0.00  0.00    -0.246 OA
ATOM     10  OE1 GLU A   1      19.967  49.953  71.773  0.00  0.00    -0.246 OA
ENDBRANCH   7   8
ENDBRANCH   6   7
ENDBRANCH   1   6
TORSDOF 5
REMARK  Name = ../refined-set-2016/2jkp/2jkp_pocket.pdb
REMARK  168 active torsions:
REMARK  status: ('A' for Active; 'I' for Inactive)
REMARK    1  A    between atoms: _1  and  _3
REMARK    2  A    between atoms: _3  and  _4
REMARK    3  A    between atoms: _3  and  _6
REMARK    4  A    between atoms: _6  and  _7
REMARK    5  A    between atoms: _7  and  _8
REMARK    6  A    between atoms: _11  and  _13
REMARK    7  A    between atoms: _13  and  _14
REMARK    8  A    between atoms: _13  and  _16
REMARK    9  A    between atoms: _16  and  _17
REMARK   10  A    between atoms: _19  and  _21
REMARK   11  A    between atoms: _21  and  _22
REMARK   12  A    between atoms: _21  and  _24
REMARK   13  A    between atoms: _24  and  _25
REMARK   14  A    between atoms: _30  and  _31
REMARK   15  A    between atoms: _33  and  _35
REMARK   16  A    between atoms: _35  and  _36
REMARK   17  A    between atoms: _35  and  _38
REMARK   18  A    between atoms: _41  and  _43
REMARK   19  A    between atoms: _43  and  _44
REMARK   20  A    between atoms: _43  and  _46
REMARK   21  A    between atoms: _46  and  _47
REMARK   22  A    between atoms: _57  and  _59
REMARK   23  A    between atoms: _59  and  _60
REMARK   24  A    between atoms: _59  and  _62
REMARK   25  A    between atoms: _62  and  _63
REMARK   26  A    between atoms: _73  and  _75
REMARK   27  A    between atoms: _75  and  _76
REMARK   28  A    between atoms: _75  and  _78
REMARK   29  A    between atoms: _78  and  _79
REMARK   30  A    between atoms: _79  and  _80
REMARK   31  A    between atoms: _82  and  _84
REMARK   32  A    between atoms: _84  and  _85
REMARK   33  A    between atoms: _84  and  _87
REMARK   34  A    between atoms: _87  and  _88
REMARK   35  A    between atoms: _91  and  _93
REMARK   36  A    between atoms: _93  and  _94
REMARK   37  A    between atoms: _93  and  _96
REMARK   38  A    between atoms: _96  and  _97
REMARK   39  A    between atoms: _107  and  _109
REMARK   40  A    between atoms: _109  and  _110
REMARK   41  A    between atoms: _109  and  _112
REMARK   42  A    between atoms: _112  and  _113
REMARK   43  A    between atoms: _116  and  _118
REMARK   44  A    between atoms: _118  and  _119
REMARK   45  A    between atoms: _118  and  _121
REMARK   46  A    between atoms: _121  and  _122
REMARK   47  A    between atoms: _122  and  _123
REMARK   48  A    between atoms: _126  and  _128
REMARK   49  A    between atoms: _128  and  _129
REMARK   50  A    between atoms: _131  and  _133
REMARK   51  A    between atoms: _133  and  _134
REMARK   52  A    between atoms: _133  and  _136
REMARK   53  A    between atoms: _136  and  _137
REMARK   54  A    between atoms: _147  and  _149
REMARK   55  A    between atoms: _149  and  _150
REMARK   56  A    between atoms: _149  and  _152
REMARK   57  A    between atoms: _152  and  _153
REMARK   58  A    between atoms: _163  and  _165
REMARK   59  A    between atoms: _165  and  _166
REMARK   60  A    between atoms: _165  and  _168
REMARK   61  A    between atoms: _168  and  _169
REMARK   62  A    between atoms: _175  and  _177
REMARK   63  A    between atoms: _177  and  _178
REMARK   64  A    between atoms: _177  and  _180
REMARK   65  A    between atoms: _180  and  _181
REMARK   66  A    between atoms: _187  and  _189
REMARK   67  A    between atoms: _189  and  _190
REMARK   68  A    between atoms: _189  and  _192
REMARK   69  A    between atoms: _192  and  _193
REMARK   70  A    between atoms: _198  and  _200
REMARK   71  A    between atoms: _200  and  _201
REMARK   72  A    between atoms: _200  and  _203
REMARK   73  A    between atoms: _203  and  _204
REMARK   74  A    between atoms: _209  and  _211
REMARK   75  A    between atoms: _211  and  _212
REMARK   76  A    between atoms: _211  and  _214
REMARK   77  A    between atoms: _214  and  _215
REMARK   78  A    between atoms: _215  and  _216
REMARK   79  A    between atoms: _219  and  _221
REMARK   80  A    between atoms: _221  and  _222
REMARK   81  A    between atoms: _221  and  _224
REMARK   82  A    between atoms: _224  and  _225
REMARK   83  A    between atoms: _228  and  _230
REMARK   84  A    between atoms: _230  and  _231
REMARK   85  A    between atoms: _230  and  _233
REMARK   86  A    between atoms: _233  and  _234
REMARK   87  A    between atoms: _236  and  _238
REMARK   88  A    between atoms: _238  and  _239
REMARK   89  A    between atoms: _238  and  _241
REMARK   90  A    between atoms: _241  and  _242
REMARK   91  A    between atoms: _242  and  _243
REMARK   92  A    between atoms: _243  and  _244
REMARK   93  A    between atoms: _244  and  _245
REMARK   94  A    between atoms: _249  and  _251
REMARK   95  A    between atoms: _251  and  _252
REMARK   96  A    between atoms: _251  and  _254
REMARK   97  A    between atoms: _254  and  _255
REMARK   98  A    between atoms: _257  and  _259
REMARK   99  A    between atoms: _259  and  _260
REMARK  100  A    between atoms: _262  and  _264
REMARK  101  A    between atoms: _264  and  _265
REMARK  102  A    between atoms: _264  and  _267
REMARK  103  A    between atoms: _267  and  _268
REMARK  104  A    between atoms: _273  and  _274
REMARK  105  A    between atoms: _276  and  _278
REMARK  106  A    between atoms: _278  and  _279
REMARK  107  A    between atoms: _278  and  _281
REMARK  108  A    between atoms: _284  and  _286
REMARK  109  A    between atoms: _286  and  _287
REMARK  110  A    between atoms: _289  and  _291
REMARK  111  A    between atoms: _291  and  _292
REMARK  112  A    between atoms: _291  and  _294
REMARK  113  A    between atoms: _294  and  _295
REMARK  114  A    between atoms: _300  and  _302
REMARK  115  A    between atoms: _302  and  _303
REMARK  116  A    between atoms: _306  and  _308
REMARK  117  A    between atoms: _308  and  _309
REMARK  118  A    between atoms: _308  and  _311
REMARK  119  A    between atoms: _311  and  _312
REMARK  120  A    between atoms: _317  and  _319
REMARK  121  A    between atoms: _319  and  _320
REMARK  122  A    between atoms: _319  and  _322
REMARK  123  A    between atoms: _322  and  _323
REMARK  124  A    between atoms: _323  and  _324
REMARK  125  A    between atoms: _327  and  _329
REMARK  126  A    between atoms: _329  and  _330
REMARK  127  A    between atoms: _329  and  _332
REMARK  128  A    between atoms: _332  and  _333
REMARK  129  A    between atoms: _333  and  _334
REMARK  130  A    between atoms: _334  and  _335
REMARK  131  A    between atoms: _335  and  CA_419
REMARK  132  A    between atoms: _337  and  _339
REMARK  133  A    between atoms: _339  and  _340
REMARK  134  A    between atoms: _339  and  _342
REMARK  135  A    between atoms: _342  and  _343
REMARK  136  A    between atoms: _345  and  _347
REMARK  137  A    between atoms: _347  and  _348
REMARK  138  A    between atoms: _351  and  _353
REMARK  139  A    between atoms: _353  and  _354
REMARK  140  A    between atoms: _356  and  _358
REMARK  141  A    between atoms: _358  and  _359
REMARK  142  A    between atoms: _358  and  _361
REMARK  143  A    between atoms: _361  and  _362
REMARK  144  A    between atoms: _362  and  _363
REMARK  145  A    between atoms: _363  and  _365
REMARK  146  A    between atoms: _365  and  CA_419
REMARK  147  A    between atoms: _366  and  _368
REMARK  148  A    between atoms: _368  and  _369
REMARK  149  A    between atoms: _368  and  _371
REMARK  150  A    between atoms: _371  and  _372
REMARK  151  A    between atoms: _377  and  _378
REMARK  152  A    between atoms: _380  and  _382
REMARK  153  A    between atoms: _382  and  _383
REMARK  154  A    between atoms: _382  and  _385
REMARK  155  A    between atoms: _385  and  _386
REMARK  156  A    between atoms: _392  and  _394
REMARK  157  A    between atoms: _394  and  _395
REMARK  158  A    between atoms: _394  and  _397
REMARK  159  A    between atoms: _397  and  _398
REMARK  160  A    between atoms: _401  and  _403
REMARK  161  A    between atoms: _403  and  _404
REMARK  162  A    between atoms: _403  and  _406
REMARK  163  A    between atoms: _406  and  _407
REMARK  164  A    between atoms: _410  and  _412
REMARK  165  A    between atoms: _412  and  _413
REMARK  166  A    between atoms: _412  and  _415
REMARK  167  A    between atoms: _415  and  _416
REMARK  168  A    between atoms: _416  and  _417
REMARK                            x       y       z     vdW  Elec       q    Type
REMARK                         _______ _______ _______ _____ _____    ______ ____
ROOT
ATOM      1  CA  SER A   1      21.439  53.870  65.316  0.00  0.00    +0.163 C 
ENDROOT
BRANCH   1   2
ATOM      2  N   SER A   1      21.410  53.987  66.767  0.00  0.00    -0.237 NA
ATOM      3  H   SER A   1      21.729  53.205  67.374  0.00  0.00    +0.142 HD
ENDBRANCH   1   2
BRANCH   1   4
ATOM      4  C   SER A   1      20.034  53.820  64.682  0.00  0.00    +0.227 C 
ATOM      5  O   SER A   1      19.883  54.072  63.497  0.00  0.00    -0.287 OA
ENDBRANCH   1   4
BRANCH   1   6
ATOM      6  CB  SER A   1      22.237  52.661  64.896  0.00  0.00    +0.162 C 
BRANCH   6   7
ATOM      7  OG  SER A   1      21.620  51.489  65.400  0.00  0.00    -0.380 OA
ATOM      8  H   SER A   1      22.145  50.696  65.124  0.00  0.00    +0.211 HD
ENDBRANCH   6   7
ENDBRANCH   1   6
TORSDOF 4
REMARK  Name = ../refined-set-2016/2jkp/2jkp_pocket.pdb
REMARK  168 active torsions:
REMARK  status: ('A' for Active; 'I' for Inactive)
REMARK    1  A    between atoms: _1  and  _3
REMARK    2  A    between atoms: _3  and  _4
REMARK    3  A    between atoms: _3  and  _6
REMARK    4  A    between atoms: _6  and  _7
REMARK    5  A    between atoms: _7  and  _8
REMARK    6  A    between atoms: _11  and  _13
REMARK    7  A    between atoms: _13  and  _14
REMARK    8  A    between atoms: _13  and  _16
REMARK    9  A    between atoms: _16  and  _17
REMARK   10  A    between atoms: _19  and  _21
REMARK   11  A    between atoms: _21  and  _22
REMARK   12  A    between atoms: _21  and  _24
REMARK   13  A    between atoms: _24  and  _25
REMARK   14  A    between atoms: _30  and  _31
REMARK   15  A    between atoms: _33  and  _35
REMARK   16  A    between atoms: _35  and  _36
REMARK   17  A    between atoms: _35  and  _38
REMARK   18  A    between atoms: _41  and  _43
REMARK   19  A    between atoms: _43  and  _44
REMARK   20  A    between atoms: _43  and  _46
REMARK   21  A    between atoms: _46  and  _47
REMARK   22  A    between atoms: _57  and  _59
REMARK   23  A    between atoms: _59  and  _60
REMARK   24  A    between atoms: _59  and  _62
REMARK   25  A    between atoms: _62  and  _63
REMARK   26  A    between atoms: _73  and  _75
REMARK   27  A    between atoms: _75  and  _76
REMARK   28  A    between atoms: _75  and  _78
REMARK   29  A    between atoms: _78  and  _79
REMARK   30  A    between atoms: _79  and  _80
REMARK   31  A    between atoms: _82  and  _84
REMARK   32  A    between atoms: _84  and  _85
REMARK   33  A    between atoms: _84  and  _87
REMARK   34  A    between atoms: _87  and  _88
REMARK   35  A    between atoms: _91  and  _93
REMARK   36  A    between atoms: _93  and  _94
REMARK   37  A    between atoms: _93  and  _96
REMARK   38  A    between atoms: _96  and  _97
REMARK   39  A    between atoms: _107  and  _109
REMARK   40  A    between atoms: _109  and  _110
REMARK   41  A    between atoms: _109  and  _112
REMARK   42  A    between atoms: _112  and  _113
REMARK   43  A    between atoms: _116  and  _118
REMARK   44  A    between atoms: _118  and  _119
REMARK   45  A    between atoms: _118  and  _121
REMARK   46  A    between atoms: _121  and  _122
REMARK   47  A    between atoms: _122  and  _123
REMARK   48  A    between atoms: _126  and  _128
REMARK   49  A    between atoms: _128  and  _129
REMARK   50  A    between atoms: _131  and  _133
REMARK   51  A    between atoms: _133  and  _134
REMARK   52  A    between atoms: _133  and  _136
REMARK   53  A    between atoms: _136  and  _137
REMARK   54  A    between atoms: _147  and  _149
REMARK   55  A    between atoms: _149  and  _150
REMARK   56  A    between atoms: _149  and  _152
REMARK   57  A    between atoms: _152  and  _153
REMARK   58  A    between atoms: _163  and  _165
REMARK   59  A    between atoms: _165  and  _166
REMARK   60  A    between atoms: _165  and  _168
REMARK   61  A    between atoms: _168  and  _169
REMARK   62  A    between atoms: _175  and  _177
REMARK   63  A    between atoms: _177  and  _178
REMARK   64  A    between atoms: _177  and  _180
REMARK   65  A    between atoms: _180  and  _181
REMARK   66  A    between atoms: _187  and  _189
REMARK   67  A    between atoms: _189  and  _190
REMARK   68  A    between atoms: _189  and  _192
REMARK   69  A    between atoms: _192  and  _193
REMARK   70  A    between atoms: _198  and  _200
REMARK   71  A    between atoms: _200  and  _201
REMARK   72  A    between atoms: _200  and  _203
REMARK   73  A    between atoms: _203  and  _204
REMARK   74  A    between atoms: _209  and  _211
REMARK   75  A    between atoms: _211  and  _212
REMARK   76  A    between atoms: _211  and  _214
REMARK   77  A    between atoms: _214  and  _215
REMARK   78  A    between atoms: _215  and  _216
REMARK   79  A    between atoms: _219  and  _221
REMARK   80  A    between atoms: _221  and  _222
REMARK   81  A    between atoms: _221  and  _224
REMARK   82  A    between atoms: _224  and  _225
REMARK   83  A    between atoms: _228  and  _230
REMARK   84  A    between atoms: _230  and  _231
REMARK   85  A    between atoms: _230  and  _233
REMARK   86  A    between atoms: _233  and  _234
REMARK   87  A    between atoms: _236  and  _238
REMARK   88  A    between atoms: _238  and  _239
REMARK   89  A    between atoms: _238  and  _241
REMARK   90  A    between atoms: _241  and  _242
REMARK   91  A    between atoms: _242  and  _243
REMARK   92  A    between atoms: _243  and  _244
REMARK   93  A    between atoms: _244  and  _245
REMARK   94  A    between atoms: _249  and  _251
REMARK   95  A    between atoms: _251  and  _252
REMARK   96  A    between atoms: _251  and  _254
REMARK   97  A    between atoms: _254  and  _255
REMARK   98  A    between atoms: _257  and  _259
REMARK   99  A    between atoms: _259  and  _260
REMARK  100  A    between atoms: _262  and  _264
REMARK  101  A    between atoms: _264  and  _265
REMARK  102  A    between atoms: _264  and  _267
REMARK  103  A    between atoms: _267  and  _268
REMARK  104  A    between atoms: _273  and  _274
REMARK  105  A    between atoms: _276  and  _278
REMARK  106  A    between atoms: _278  and  _279
REMARK  107  A    between atoms: _278  and  _281
REMARK  108  A    between atoms: _284  and  _286
REMARK  109  A    between atoms: _286  and  _287
REMARK  110  A    between atoms: _289  and  _291
REMARK  111  A    between atoms: _291  and  _292
REMARK  112  A    between atoms: _291  and  _294
REMARK  113  A    between atoms: _294  and  _295
REMARK  114  A    between atoms: _300  and  _302
REMARK  115  A    between atoms: _302  and  _303
REMARK  116  A    between atoms: _306  and  _308
REMARK  117  A    between atoms: _308  and  _309
REMARK  118  A    between atoms: _308  and  _311
REMARK  119  A    between atoms: _311  and  _312
REMARK  120  A    between atoms: _317  and  _319
REMARK  121  A    between atoms: _319  and  _320
REMARK  122  A    between atoms: _319  and  _322
REMARK  123  A    between atoms: _322  and  _323
REMARK  124  A    between atoms: _323  and  _324
REMARK  125  A    between atoms: _327  and  _329
REMARK  126  A    between atoms: _329  and  _330
REMARK  127  A    between atoms: _329  and  _332
REMARK  128  A    between atoms: _332  and  _333
REMARK  129  A    between atoms: _333  and  _334
REMARK  130  A    between atoms: _334  and  _335
REMARK  131  A    between atoms: _335  and  CA_419
REMARK  132  A    between atoms: _337  and  _339
REMARK  133  A    between atoms: _339  and  _340
REMARK  134  A    between atoms: _339  and  _342
REMARK  135  A    between atoms: _342  and  _343
REMARK  136  A    between atoms: _345  and  _347
REMARK  137  A    between atoms: _347  and  _348
REMARK  138  A    between atoms: _351  and  _353
REMARK  139  A    between atoms: _353  and  _354
REMARK  140  A    between atoms: _356  and  _358
REMARK  141  A    between atoms: _358  and  _359
REMARK  142  A    between atoms: _358  and  _361
REMARK  143  A    between atoms: _361  and  _362
REMARK  144  A    between atoms: _362  and  _363
REMARK  145  A    between atoms: _363  and  _365
REMARK  146  A    between atoms: _365  and  CA_419
REMARK  147  A    between atoms: _366  and  _368
REMARK  148  A    between atoms: _368  and  _369
REMARK  149  A    between atoms: _368  and  _371
REMARK  150  A    between atoms: _371  and  _372
REMARK  151  A    between atoms: _377  and  _378
REMARK  152  A    between atoms: _380  and  _382
REMARK  153  A    between atoms: _382  and  _383
REMARK  154  A    between atoms: _382  and  _385
REMARK  155  A    between atoms: _385  and  _386
REMARK  156  A    between atoms: _392  and  _394
REMARK  157  A    between atoms: _394  and  _395
REMARK  158  A    between atoms: _394  and  _397
REMARK  159  A    between atoms: _397  and  _398
REMARK  160  A    between atoms: _401  and  _403
REMARK  161  A    between atoms: _403  and  _404
REMARK  162  A    between atoms: _403  and  _406
REMARK  163  A    between atoms: _406  and  _407
REMARK  164  A    between atoms: _410  and  _412
REMARK  165  A    between atoms: _412  and  _413
REMARK  166  A    between atoms: _412  and  _415
REMARK  167  A    between atoms: _415  and  _416
REMARK  168  A    between atoms: _416  and  _417
REMARK                            x       y       z     vdW  Elec       q    Type
REMARK                         _______ _______ _______ _____ _____    ______ ____
ROOT
ATOM      1  CG  TYR A   1      22.091  31.847  78.379  0.00  0.00    -0.020 A 
ATOM      2  CD2 TYR A   1      21.032  32.465  79.025  0.00  0.00    -0.001 A 
ATOM      3  CE2 TYR A   1      20.599  33.760  78.661  0.00  0.00    +0.036 A 
ATOM      4  CZ  TYR A   1      21.250  34.453  77.628  0.00  0.00    +0.134 A 
ATOM      5  CE1 TYR A   1      22.270  33.851  76.956  0.00  0.00    +0.036 A 
ATOM      6  CD1 TYR A   1      22.709  32.553  77.350  0.00  0.00    -0.001 A 
ENDROOT
BRANCH   4   7
ATOM      7  OH  TYR A   1      20.834  35.722  77.259  0.00  0.00    -0.506 OA
ATOM      8  HH  TYR A   1      20.910  36.332  78.035  0.00  0.00    +0.292 HD
ENDBRANCH   4   7
BRANCH   1   9
ATOM      9  CB  TYR A   1      22.518  30.422  78.731  0.00  0.00    +0.051 C 
BRANCH   9  10
ATOM     10  CA  TYR A   1      23.174  30.217  80.119  0.00  0.00    +0.137 C 
BRANCH  10  11
ATOM     11  N   TYR A   1      22.198  30.380  81.194  0.00  0.00    -0.239 NA
ATOM     12  H   TYR A   1      22.021  31.315  81.614  0.00  0.00    +0.142 HD
ENDBRANCH  10  11
BRANCH  10  13
ATOM     13  C   TYR A   1      24.348  31.146  80.246  0.00  0.00    +0.224 C 
ATOM     14  O   TYR A   1      24.312  32.108  80.982  0.00  0.00    -0.287 OA
ENDBRANCH  10  13
ENDBRANCH   9  10
ENDBRANCH   1   9
TORSDOF 5
REMARK  Name = ../refined-set-2016/2jkp/2jkp_pocket.pdb
REMARK  168 active torsions:
REMARK  status: ('A' for Active; 'I' for Inactive)
REMARK    1  A    between atoms: _1  and  _3
REMARK    2  A    between atoms: _3  and  _4
REMARK    3  A    between atoms: _3  and  _6
REMARK    4  A    between atoms: _6  and  _7
REMARK    5  A    between atoms: _7  and  _8
REMARK    6  A    between atoms: _11  and  _13
REMARK    7  A    between atoms: _13  and  _14
REMARK    8  A    between atoms: _13  and  _16
REMARK    9  A    between atoms: _16  and  _17
REMARK   10  A    between atoms: _19  and  _21
REMARK   11  A    between atoms: _21  and  _22
REMARK   12  A    between atoms: _21  and  _24
REMARK   13  A    between atoms: _24  and  _25
REMARK   14  A    between atoms: _30  and  _31
REMARK   15  A    between atoms: _33  and  _35
REMARK   16  A    between atoms: _35  and  _36
REMARK   17  A    between atoms: _35  and  _38
REMARK   18  A    between atoms: _41  and  _43
REMARK   19  A    between atoms: _43  and  _44
REMARK   20  A    between atoms: _43  and  _46
REMARK   21  A    between atoms: _46  and  _47
REMARK   22  A    between atoms: _57  and  _59
REMARK   23  A    between atoms: _59  and  _60
REMARK   24  A    between atoms: _59  and  _62
REMARK   25  A    between atoms: _62  and  _63
REMARK   26  A    between atoms: _73  and  _75
REMARK   27  A    between atoms: _75  and  _76
REMARK   28  A    between atoms: _75  and  _78
REMARK   29  A    between atoms: _78  and  _79
REMARK   30  A    between atoms: _79  and  _80
REMARK   31  A    between atoms: _82  and  _84
REMARK   32  A    between atoms: _84  and  _85
REMARK   33  A    between atoms: _84  and  _87
REMARK   34  A    between atoms: _87  and  _88
REMARK   35  A    between atoms: _91  and  _93
REMARK   36  A    between atoms: _93  and  _94
REMARK   37  A    between atoms: _93  and  _96
REMARK   38  A    between atoms: _96  and  _97
REMARK   39  A    between atoms: _107  and  _109
REMARK   40  A    between atoms: _109  and  _110
REMARK   41  A    between atoms: _109  and  _112
REMARK   42  A    between atoms: _112  and  _113
REMARK   43  A    between atoms: _116  and  _118
REMARK   44  A    between atoms: _118  and  _119
REMARK   45  A    between atoms: _118  and  _121
REMARK   46  A    between atoms: _121  and  _122
REMARK   47  A    between atoms: _122  and  _123
REMARK   48  A    between atoms: _126  and  _128
REMARK   49  A    between atoms: _128  and  _129
REMARK   50  A    between atoms: _131  and  _133
REMARK   51  A    between atoms: _133  and  _134
REMARK   52  A    between atoms: _133  and  _136
REMARK   53  A    between atoms: _136  and  _137
REMARK   54  A    between atoms: _147  and  _149
REMARK   55  A    between atoms: _149  and  _150
REMARK   56  A    between atoms: _149  and  _152
REMARK   57  A    between atoms: _152  and  _153
REMARK   58  A    between atoms: _163  and  _165
REMARK   59  A    between atoms: _165  and  _166
REMARK   60  A    between atoms: _165  and  _168
REMARK   61  A    between atoms: _168  and  _169
REMARK   62  A    between atoms: _175  and  _177
REMARK   63  A    between atoms: _177  and  _178
REMARK   64  A    between atoms: _177  and  _180
REMARK   65  A    between atoms: _180  and  _181
REMARK   66  A    between atoms: _187  and  _189
REMARK   67  A    between atoms: _189  and  _190
REMARK   68  A    between atoms: _189  and  _192
REMARK   69  A    between atoms: _192  and  _193
REMARK   70  A    between atoms: _198  and  _200
REMARK   71  A    between atoms: _200  and  _201
REMARK   72  A    between atoms: _200  and  _203
REMARK   73  A    between atoms: _203  and  _204
REMARK   74  A    between atoms: _209  and  _211
REMARK   75  A    between atoms: _211  and  _212
REMARK   76  A    between atoms: _211  and  _214
REMARK   77  A    between atoms: _214  and  _215
REMARK   78  A    between atoms: _215  and  _216
REMARK   79  A    between atoms: _219  and  _221
REMARK   80  A    between atoms: _221  and  _222
REMARK   81  A    between atoms: _221  and  _224
REMARK   82  A    between atoms: _224  and  _225
REMARK   83  A    between atoms: _228  and  _230
REMARK   84  A    between atoms: _230  and  _231
REMARK   85  A    between atoms: _230  and  _233
REMARK   86  A    between atoms: _233  and  _234
REMARK   87  A    between atoms: _236  and  _238
REMARK   88  A    between atoms: _238  and  _239
REMARK   89  A    between atoms: _238  and  _241
REMARK   90  A    between atoms: _241  and  _242
REMARK   91  A    between atoms: _242  and  _243
REMARK   92  A    between atoms: _243  and  _244
REMARK   93  A    between atoms: _244  and  _245
REMARK   94  A    between atoms: _249  and  _251
REMARK   95  A    between atoms: _251  and  _252
REMARK   96  A    between atoms: _251  and  _254
REMARK   97  A    between atoms: _254  and  _255
REMARK   98  A    between atoms: _257  and  _259
REMARK   99  A    between atoms: _259  and  _260
REMARK  100  A    between atoms: _262  and  _264
REMARK  101  A    between atoms: _264  and  _265
REMARK  102  A    between atoms: _264  and  _267
REMARK  103  A    between atoms: _267  and  _268
REMARK  104  A    between atoms: _273  and  _274
REMARK  105  A    between atoms: _276  and  _278
REMARK  106  A    between atoms: _278  and  _279
REMARK  107  A    between atoms: _278  and  _281
REMARK  108  A    between atoms: _284  and  _286
REMARK  109  A    between atoms: _286  and  _287
REMARK  110  A    between atoms: _289  and  _291
REMARK  111  A    between atoms: _291  and  _292
REMARK  112  A    between atoms: _291  and  _294
REMARK  113  A    between atoms: _294  and  _295
REMARK  114  A    between atoms: _300  and  _302
REMARK  115  A    between atoms: _302  and  _303
REMARK  116  A    between atoms: _306  and  _308
REMARK  117  A    between atoms: _308  and  _309
REMARK  118  A    between atoms: _308  and  _311
REMARK  119  A    between atoms: _311  and  _312
REMARK  120  A    between atoms: _317  and  _319
REMARK  121  A    between atoms: _319  and  _320
REMARK  122  A    between atoms: _319  and  _322
REMARK  123  A    between atoms: _322  and  _323
REMARK  124  A    between atoms: _323  and  _324
REMARK  125  A    between atoms: _327  and  _329
REMARK  126  A    between atoms: _329  and  _330
REMARK  127  A    between atoms: _329  and  _332
REMARK  128  A    between atoms: _332  and  _333
REMARK  129  A    between atoms: _333  and  _334
REMARK  130  A    between atoms: _334  and  _335
REMARK  131  A    between atoms: _335  and  CA_419
REMARK  132  A    between atoms: _337  and  _339
REMARK  133  A    between atoms: _339  and  _340
REMARK  134  A    between atoms: _339  and  _342
REMARK  135  A    between atoms: _342  and  _343
REMARK  136  A    between atoms: _345  and  _347
REMARK  137  A    between atoms: _347  and  _348
REMARK  138  A    between atoms: _351  and  _353
REMARK  139  A    between atoms: _353  and  _354
REMARK  140  A    between atoms: _356  and  _358
REMARK  141  A    between atoms: _358  and  _359
REMARK  142  A    between atoms: _358  and  _361
REMARK  143  A    between atoms: _361  and  _362
REMARK  144  A    between atoms: _362  and  _363
REMARK  145  A    between atoms: _363  and  _365
REMARK  146  A    between atoms: _365  and  CA_419
REMARK  147  A    between atoms: _366  and  _368
REMARK  148  A    between atoms: _368  and  _369
REMARK  149  A    between atoms: _368  and  _371
REMARK  150  A    between atoms: _371  and  _372
REMARK  151  A    between atoms: _377  and  _378
REMARK  152  A    between atoms: _380  and  _382
REMARK  153  A    between atoms: _382  and  _383
REMARK  154  A    between atoms: _382  and  _385
REMARK  155  A    between atoms: _385  and  _386
REMARK  156  A    between atoms: _392  and  _394
REMARK  157  A    between atoms: _394  and  _395
REMARK  158  A    between atoms: _394  and  _397
REMARK  159  A    between atoms: _397  and  _398
REMARK  160  A    between atoms: _401  and  _403
REMARK  161  A    between atoms: _403  and  _404
REMARK  162  A    between atoms: _403  and  _406
REMARK  163  A    between atoms: _406  and  _407
REMARK  164  A    between atoms: _410  and  _412
REMARK  165  A    between atoms: _412  and  _413
REMARK  166  A    between atoms: _412  and  _415
REMARK  167  A    between atoms: _415  and  _416
REMARK  168  A    between atoms: _416  and  _417
REMARK                            x       y       z     vdW  Elec       q    Type
REMARK                         _______ _______ _______ _____ _____    ______ ____
ROOT
ATOM      1  CA  TRP A   2      29.022  37.447  73.586  0.00  0.00    +0.153 C 
ENDROOT
BRANCH   1   3
ATOM      2  C   VAL A   1      29.669  35.176  72.977  0.00  0.00    +0.238 C 
ATOM      3  N   TRP A   2      29.879  36.265  73.700  0.00  0.00    -0.297 N 
ATOM      4  H   TRP A   2      30.676  36.282  74.368  0.00  0.00    +0.150 HD
ATOM      5  O   VAL A   1      28.856  35.145  72.023  0.00  0.00    -0.274 OA
BRANCH   2   6
ATOM      6  CA  VAL A   1      30.430  33.931  73.433  0.00  0.00    +0.145 C 
BRANCH   6   7
ATOM      7  CB  VAL A   1      30.944  33.092  72.268  0.00  0.00    +0.025 C 
ATOM      8  CG2 VAL A   1      31.611  31.864  72.802  0.00  0.00    +0.002 C 
ATOM      9  CG1 VAL A   1      31.922  33.892  71.408  0.00  0.00    +0.002 C 
ENDBRANCH   6   7
BRANCH   6  10
ATOM     10  N   VAL A   1      29.453  33.170  74.194  0.00  0.00    -0.238 NA
ATOM     11  H   VAL A   1      29.031  32.321  73.767  0.00  0.00    +0.142 HD
ENDBRANCH   6  10
ENDBRANCH   2   6
ENDBRANCH   1   3
BRANCH   1  12
ATOM     12  C   TRP A   2      29.752  38.697  74.060  0.00  0.00    +0.241 C 
ATOM     13  N   TRP A   3      30.075  38.737  75.348  0.00  0.00    -0.298 N 
ATOM     14  H   TRP A   3      29.833  37.932  75.961  0.00  0.00    +0.150 HD
ATOM     15  O   TRP A   2      30.014  39.628  73.295  0.00  0.00    -0.273 OA
BRANCH  13  16
ATOM     16  CA  TRP A   3      30.763  39.889  75.917  0.00  0.00    +0.141 C 
BRANCH  16  17
ATOM     17  C   TRP A   3      32.053  40.237  75.148  0.00  0.00    +0.227 C 
ATOM     18  O   TRP A   3      32.379  41.405  75.036  0.00  0.00    -0.286 OA
ENDBRANCH  16  17
BRANCH  16  19
ATOM     19  CB  TRP A   3      31.113  39.588  77.364  0.00  0.00    +0.056 C 
BRANCH  19  20
ATOM     20  CG  TRP A   3      31.442  40.718  78.267  0.00  0.00    -0.002 A 
ATOM     21  CD1 TRP A   3      32.501  40.787  79.124  0.00  0.00    +0.068 A 
ATOM     22  NE1 TRP A   3      32.417  41.920  79.888  0.00  0.00    -0.352 N 
ATOM     23  HE1 TRP A   3      33.077  42.183  80.648  0.00  0.00    +0.166 HD
ATOM     24  CE2 TRP A   3      31.328  42.654  79.496  0.00  0.00    +0.056 A 
ATOM     25  CZ2 TRP A   3      30.853  43.890  79.965  0.00  0.00    +0.017 A 
ATOM     26  CH2 TRP A   3      29.711  44.372  79.413  0.00  0.00    +0.001 A 
ATOM     27  CZ3 TRP A   3      29.020  43.644  78.392  0.00  0.00    +0.000 A 
ATOM     28  CE3 TRP A   3      29.491  42.432  77.939  0.00  0.00    +0.001 A 
ATOM     29  CD2 TRP A   3      30.665  41.917  78.493  0.00  0.00    +0.013 A 
ENDBRANCH  19  20
ENDBRANCH  16  19
ENDBRANCH  13  16
ENDBRANCH   1  12
BRANCH   1  30
ATOM     30  CB  TRP A   2      27.718  37.229  74.420  0.00  0.00    +0.057 C 
BRANCH  30  31
ATOM     31  CG  TRP A   2      26.806  38.442  74.397  0.00  0.00    -0.002 A 
ATOM     32  CD2 TRP A   2      26.612  39.409  75.454  0.00  0.00    +0.013 A 
ATOM     33  CE3 TRP A   2      27.102  39.530  76.765  0.00  0.00    +0.001 A 
ATOM     34  CZ3 TRP A   2      26.684  40.600  77.527  0.00  0.00    +0.000 A 
ATOM     35  CH2 TRP A   2      25.802  41.568  76.996  0.00  0.00    +0.001 A 
ATOM     36  CZ2 TRP A   2      25.328  41.482  75.702  0.00  0.00    +0.017 A 
ATOM     37  CE2 TRP A   2      25.735  40.397  74.951  0.00  0.00    +0.056 A 
ATOM     38  NE1 TRP A   2      25.426  40.054  73.660  0.00  0.00    -0.352 N 
ATOM     39  HE1 TRP A   2      24.804  40.599  73.029  0.00  0.00    +0.166 HD
ATOM     40  CD1 TRP A   2      26.058  38.886  73.325  0.00  0.00    +0.068 A 
ENDBRANCH  30  31
ENDBRANCH   1  30
TORSDOF 11
REMARK  Name = ../refined-set-2016/2jkp/2jkp_pocket.pdb
REMARK  168 active torsions:
REMARK  status: ('A' for Active; 'I' for Inactive)
REMARK    1  A    between atoms: _1  and  _3
REMARK    2  A    between atoms: _3  and  _4
REMARK    3  A    between atoms: _3  and  _6
REMARK    4  A    between atoms: _6  and  _7
REMARK    5  A    between atoms: _7  and  _8
REMARK    6  A    between atoms: _11  and  _13
REMARK    7  A    between atoms: _13  and  _14
REMARK    8  A    between atoms: _13  and  _16
REMARK    9  A    between atoms: _16  and  _17
REMARK   10  A    between atoms: _19  and  _21
REMARK   11  A    between atoms: _21  and  _22
REMARK   12  A    between atoms: _21  and  _24
REMARK   13  A    between atoms: _24  and  _25
REMARK   14  A    between atoms: _30  and  _31
REMARK   15  A    between atoms: _33  and  _35
REMARK   16  A    between atoms: _35  and  _36
REMARK   17  A    between atoms: _35  and  _38
REMARK   18  A    between atoms: _41  and  _43
REMARK   19  A    between atoms: _43  and  _44
REMARK   20  A    between atoms: _43  and  _46
REMARK   21  A    between atoms: _46  and  _47
REMARK   22  A    between atoms: _57  and  _59
REMARK   23  A    between atoms: _59  and  _60
REMARK   24  A    between atoms: _59  and  _62
REMARK   25  A    between atoms: _62  and  _63
REMARK   26  A    between atoms: _73  and  _75
REMARK   27  A    between atoms: _75  and  _76
REMARK   28  A    between atoms: _75  and  _78
REMARK   29  A    between atoms: _78  and  _79
REMARK   30  A    between atoms: _79  and  _80
REMARK   31  A    between atoms: _82  and  _84
REMARK   32  A    between atoms: _84  and  _85
REMARK   33  A    between atoms: _84  and  _87
REMARK   34  A    between atoms: _87  and  _88
REMARK   35  A    between atoms: _91  and  _93
REMARK   36  A    between atoms: _93  and  _94
REMARK   37  A    between atoms: _93  and  _96
REMARK   38  A    between atoms: _96  and  _97
REMARK   39  A    between atoms: _107  and  _109
REMARK   40  A    between atoms: _109  and  _110
REMARK   41  A    between atoms: _109  and  _112
REMARK   42  A    between atoms: _112  and  _113
REMARK   43  A    between atoms: _116  and  _118
REMARK   44  A    between atoms: _118  and  _119
REMARK   45  A    between atoms: _118  and  _121
REMARK   46  A    between atoms: _121  and  _122
REMARK   47  A    between atoms: _122  and  _123
REMARK   48  A    between atoms: _126  and  _128
REMARK   49  A    between atoms: _128  and  _129
REMARK   50  A    between atoms: _131  and  _133
REMARK   51  A    between atoms: _133  and  _134
REMARK   52  A    between atoms: _133  and  _136
REMARK   53  A    between atoms: _136  and  _137
REMARK   54  A    between atoms: _147  and  _149
REMARK   55  A    between atoms: _149  and  _150
REMARK   56  A    between atoms: _149  and  _152
REMARK   57  A    between atoms: _152  and  _153
REMARK   58  A    between atoms: _163  and  _165
REMARK   59  A    between atoms: _165  and  _166
REMARK   60  A    between atoms: _165  and  _168
REMARK   61  A    between atoms: _168  and  _169
REMARK   62  A    between atoms: _175  and  _177
REMARK   63  A    between atoms: _177  and  _178
REMARK   64  A    between atoms: _177  and  _180
REMARK   65  A    between atoms: _180  and  _181
REMARK   66  A    between atoms: _187  and  _189
REMARK   67  A    between atoms: _189  and  _190
REMARK   68  A    between atoms: _189  and  _192
REMARK   69  A    between atoms: _192  and  _193
REMARK   70  A    between atoms: _198  and  _200
REMARK   71  A    between atoms: _200  and  _201
REMARK   72  A    between atoms: _200  and  _203
REMARK   73  A    between atoms: _203  and  _204
REMARK   74  A    between atoms: _209  and  _211
REMARK   75  A    between atoms: _211  and  _212
REMARK   76  A    between atoms: _211  and  _214
REMARK   77  A    between atoms: _214  and  _215
REMARK   78  A    between atoms: _215  and  _216
REMARK   79  A    between atoms: _219  and  _221
REMARK   80  A    between atoms: _221  and  _222
REMARK   81  A    between atoms: _221  and  _224
REMARK   82  A    between atoms: _224  and  _225
REMARK   83  A    between atoms: _228  and  _230
REMARK   84  A    between atoms: _230  and  _231
REMARK   85  A    between atoms: _230  and  _233
REMARK   86  A    between atoms: _233  and  _234
REMARK   87  A    between atoms: _236  and  _238
REMARK   88  A    between atoms: _238  and  _239
REMARK   89  A    between atoms: _238  and  _241
REMARK   90  A    between atoms: _241  and  _242
REMARK   91  A    between atoms: _242  and  _243
REMARK   92  A    between atoms: _243  and  _244
REMARK   93  A    between atoms: _244  and  _245
REMARK   94  A    between atoms: _249  and  _251
REMARK   95  A    between atoms: _251  and  _252
REMARK   96  A    between atoms: _251  and  _254
REMARK   97  A    between atoms: _254  and  _255
REMARK   98  A    between atoms: _257  and  _259
REMARK   99  A    between atoms: _259  and  _260
REMARK  100  A    between atoms: _262  and  _264
REMARK  101  A    between atoms: _264  and  _265
REMARK  102  A    between atoms: _264  and  _267
REMARK  103  A    between atoms: _267  and  _268
REMARK  104  A    between atoms: _273  and  _274
REMARK  105  A    between atoms: _276  and  _278
REMARK  106  A    between atoms: _278  and  _279
REMARK  107  A    between atoms: _278  and  _281
REMARK  108  A    between atoms: _284  and  _286
REMARK  109  A    between atoms: _286  and  _287
REMARK  110  A    between atoms: _289  and  _291
REMARK  111  A    between atoms: _291  and  _292
REMARK  112  A    between atoms: _291  and  _294
REMARK  113  A    between atoms: _294  and  _295
REMARK  114  A    between atoms: _300  and  _302
REMARK  115  A    between atoms: _302  and  _303
REMARK  116  A    between atoms: _306  and  _308
REMARK  117  A    between atoms: _308  and  _309
REMARK  118  A    between atoms: _308  and  _311
REMARK  119  A    between atoms: _311  and  _312
REMARK  120  A    between atoms: _317  and  _319
REMARK  121  A    between atoms: _319  and  _320
REMARK  122  A    between atoms: _319  and  _322
REMARK  123  A    between atoms: _322  and  _323
REMARK  124  A    between atoms: _323  and  _324
REMARK  125  A    between atoms: _327  and  _329
REMARK  126  A    between atoms: _329  and  _330
REMARK  127  A    between atoms: _329  and  _332
REMARK  128  A    between atoms: _332  and  _333
REMARK  129  A    between atoms: _333  and  _334
REMARK  130  A    between atoms: _334  and  _335
REMARK  131  A    between atoms: _335  and  CA_419
REMARK  132  A    between atoms: _337  and  _339
REMARK  133  A    between atoms: _339  and  _340
REMARK  134  A    between atoms: _339  and  _342
REMARK  135  A    between atoms: _342  and  _343
REMARK  136  A    between atoms: _345  and  _347
REMARK  137  A    between atoms: _347  and  _348
REMARK  138  A    between atoms: _351  and  _353
REMARK  139  A    between atoms: _353  and  _354
REMARK  140  A    between atoms: _356  and  _358
REMARK  141  A    between atoms: _358  and  _359
REMARK  142  A    between atoms: _358  and  _361
REMARK  143  A    between atoms: _361  and  _362
REMARK  144  A    between atoms: _362  and  _363
REMARK  145  A    between atoms: _363  and  _365
REMARK  146  A    between atoms: _365  and  CA_419
REMARK  147  A    between atoms: _366  and  _368
REMARK  148  A    between atoms: _368  and  _369
REMARK  149  A    between atoms: _368  and  _371
REMARK  150  A    between atoms: _371  and  _372
REMARK  151  A    between atoms: _377  and  _378
REMARK  152  A    between atoms: _380  and  _382
REMARK  153  A    between atoms: _382  and  _383
REMARK  154  A    between atoms: _382  and  _385
REMARK  155  A    between atoms: _385  and  _386
REMARK  156  A    between atoms: _392  and  _394
REMARK  157  A    between atoms: _394  and  _395
REMARK  158  A    between atoms: _394  and  _397
REMARK  159  A    between atoms: _397  and  _398
REMARK  160  A    between atoms: _401  and  _403
REMARK  161  A    between atoms: _403  and  _404
REMARK  162  A    between atoms: _403  and  _406
REMARK  163  A    between atoms: _406  and  _407
REMARK  164  A    between atoms: _410  and  _412
REMARK  165  A    between atoms: _412  and  _413
REMARK  166  A    between atoms: _412  and  _415
REMARK  167  A    between atoms: _415  and  _416
REMARK  168  A    between atoms: _416  and  _417
REMARK                            x       y       z     vdW  Elec       q    Type
REMARK                         _______ _______ _______ _____ _____    ______ ____
ROOT
ATOM      1  C   MET A   1      31.549  42.584  71.409  0.00  0.00    +0.238 C 
ATOM      2  N   ILE A   2      30.756  42.427  72.475  0.00  0.00    -0.298 N 
ATOM      3  H   ILE A   2      30.622  41.490  72.905  0.00  0.00    +0.150 HD
ATOM      4  O   MET A   1      31.756  43.684  70.905  0.00  0.00    -0.274 OA
ENDROOT
BRANCH   1   5
ATOM      5  CA  MET A   1      32.208  41.346  70.839  0.00  0.00    +0.146 C 
BRANCH   5   6
ATOM      6  N   MET A   1      32.533  40.398  71.938  0.00  0.00    -0.238 NA
ATOM      7  H   MET A   1      31.947  39.553  72.091  0.00  0.00    +0.142 HD
ENDBRANCH   5   6
BRANCH   5   8
ATOM      8  CB  MET A   1      31.296  40.696  69.772  0.00  0.00    +0.038 C 
BRANCH   8   9
ATOM      9  CG  MET A   1      31.875  39.386  69.137  0.00  0.00    +0.060 C 
BRANCH   9  10
ATOM     10  SD  MET A   1      31.767  37.833  70.095  0.00  0.00    -0.139 S 
ATOM     11  CE  MET A   1      29.995  37.653  70.278  0.00  0.00    +0.069 C 
ENDBRANCH   9  10
ENDBRANCH   8   9
ENDBRANCH   5   8
ENDBRANCH   1   5
BRANCH   2  12
ATOM     12  CA  ILE A   2      30.083  43.602  73.020  0.00  0.00    +0.137 C 
BRANCH  12  13
ATOM     13  CB  ILE A   2      29.074  43.288  74.183  0.00  0.00    +0.026 C 
ATOM     14  CG2 ILE A   2      28.553  44.586  74.757  0.00  0.00    +0.002 C 
BRANCH  13  15
ATOM     15  CG1 ILE A   2      27.918  42.309  73.781  0.00  0.00    +0.002 C 
ATOM     16  CD1 ILE A   2      26.984  42.875  72.766  0.00  0.00    +0.000 C 
ENDBRANCH  13  15
ENDBRANCH  12  13
BRANCH  12  17
ATOM     17  C   ILE A   2      31.106  44.660  73.500  0.00  0.00    +0.227 C 
ATOM     18  O   ILE A   2      30.882  45.882  73.335  0.00  0.00    -0.286 OA
ENDBRANCH  12  17
ENDBRANCH   2  12
TORSDOF 9
REMARK  Name = ../refined-set-2016/2jkp/2jkp_pocket.pdb
REMARK  168 active torsions:
REMARK  status: ('A' for Active; 'I' for Inactive)
REMARK    1  A    between atoms: _1  and  _3
REMARK    2  A    between atoms: _3  and  _4
REMARK    3  A    between atoms: _3  and  _6
REMARK    4  A    between atoms: _6  and  _7
REMARK    5  A    between atoms: _7  and  _8
REMARK    6  A    between atoms: _11  and  _13
REMARK    7  A    between atoms: _13  and  _14
REMARK    8  A    between atoms: _13  and  _16
REMARK    9  A    between atoms: _16  and  _17
REMARK   10  A    between atoms: _19  and  _21
REMARK   11  A    between atoms: _21  and  _22
REMARK   12  A    between atoms: _21  and  _24
REMARK   13  A    between atoms: _24  and  _25
REMARK   14  A    between atoms: _30  and  _31
REMARK   15  A    between atoms: _33  and  _35
REMARK   16  A    between atoms: _35  and  _36
REMARK   17  A    between atoms: _35  and  _38
REMARK   18  A    between atoms: _41  and  _43
REMARK   19  A    between atoms: _43  and  _44
REMARK   20  A    between atoms: _43  and  _46
REMARK   21  A    between atoms: _46  and  _47
REMARK   22  A    between atoms: _57  and  _59
REMARK   23  A    between atoms: _59  and  _60
REMARK   24  A    between atoms: _59  and  _62
REMARK   25  A    between atoms: _62  and  _63
REMARK   26  A    between atoms: _73  and  _75
REMARK   27  A    between atoms: _75  and  _76
REMARK   28  A    between atoms: _75  and  _78
REMARK   29  A    between atoms: _78  and  _79
REMARK   30  A    between atoms: _79  and  _80
REMARK   31  A    between atoms: _82  and  _84
REMARK   32  A    between atoms: _84  and  _85
REMARK   33  A    between atoms: _84  and  _87
REMARK   34  A    between atoms: _87  and  _88
REMARK   35  A    between atoms: _91  and  _93
REMARK   36  A    between atoms: _93  and  _94
REMARK   37  A    between atoms: _93  and  _96
REMARK   38  A    between atoms: _96  and  _97
REMARK   39  A    between atoms: _107  and  _109
REMARK   40  A    between atoms: _109  and  _110
REMARK   41  A    between atoms: _109  and  _112
REMARK   42  A    between atoms: _112  and  _113
REMARK   43  A    between atoms: _116  and  _118
REMARK   44  A    between atoms: _118  and  _119
REMARK   45  A    between atoms: _118  and  _121
REMARK   46  A    between atoms: _121  and  _122
REMARK   47  A    between atoms: _122  and  _123
REMARK   48  A    between atoms: _126  and  _128
REMARK   49  A    between atoms: _128  and  _129
REMARK   50  A    between atoms: _131  and  _133
REMARK   51  A    between atoms: _133  and  _134
REMARK   52  A    between atoms: _133  and  _136
REMARK   53  A    between atoms: _136  and  _137
REMARK   54  A    between atoms: _147  and  _149
REMARK   55  A    between atoms: _149  and  _150
REMARK   56  A    between atoms: _149  and  _152
REMARK   57  A    between atoms: _152  and  _153
REMARK   58  A    between atoms: _163  and  _165
REMARK   59  A    between atoms: _165  and  _166
REMARK   60  A    between atoms: _165  and  _168
REMARK   61  A    between atoms: _168  and  _169
REMARK   62  A    between atoms: _175  and  _177
REMARK   63  A    between atoms: _177  and  _178
REMARK   64  A    between atoms: _177  and  _180
REMARK   65  A    between atoms: _180  and  _181
REMARK   66  A    between atoms: _187  and  _189
REMARK   67  A    between atoms: _189  and  _190
REMARK   68  A    between atoms: _189  and  _192
REMARK   69  A    between atoms: _192  and  _193
REMARK   70  A    between atoms: _198  and  _200
REMARK   71  A    between atoms: _200  and  _201
REMARK   72  A    between atoms: _200  and  _203
REMARK   73  A    between atoms: _203  and  _204
REMARK   74  A    between atoms: _209  and  _211
REMARK   75  A    between atoms: _211  and  _212
REMARK   76  A    between atoms: _211  and  _214
REMARK   77  A    between atoms: _214  and  _215
REMARK   78  A    between atoms: _215  and  _216
REMARK   79  A    between atoms: _219  and  _221
REMARK   80  A    between atoms: _221  and  _222
REMARK   81  A    between atoms: _221  and  _224
REMARK   82  A    between atoms: _224  and  _225
REMARK   83  A    between atoms: _228  and  _230
REMARK   84  A    between atoms: _230  and  _231
REMARK   85  A    between atoms: _230  and  _233
REMARK   86  A    between atoms: _233  and  _234
REMARK   87  A    between atoms: _236  and  _238
REMARK   88  A    between atoms: _238  and  _239
REMARK   89  A    between atoms: _238  and  _241
REMARK   90  A    between atoms: _241  and  _242
REMARK   91  A    between atoms: _242  and  _243
REMARK   92  A    between atoms: _243  and  _244
REMARK   93  A    between atoms: _244  and  _245
REMARK   94  A    between atoms: _249  and  _251
REMARK   95  A    between atoms: _251  and  _252
REMARK   96  A    between atoms: _251  and  _254
REMARK   97  A    between atoms: _254  and  _255
REMARK   98  A    between atoms: _257  and  _259
REMARK   99  A    between atoms: _259  and  _260
REMARK  100  A    between atoms: _262  and  _264
REMARK  101  A    between atoms: _264  and  _265
REMARK  102  A    between atoms: _264  and  _267
REMARK  103  A    between atoms: _267  and  _268
REMARK  104  A    between atoms: _273  and  _274
REMARK  105  A    between atoms: _276  and  _278
REMARK  106  A    between atoms: _278  and  _279
REMARK  107  A    between atoms: _278  and  _281
REMARK  108  A    between atoms: _284  and  _286
REMARK  109  A    between atoms: _286  and  _287
REMARK  110  A    between atoms: _289  and  _291
REMARK  111  A    between atoms: _291  and  _292
REMARK  112  A    between atoms: _291  and  _294
REMARK  113  A    between atoms: _294  and  _295
REMARK  114  A    between atoms: _300  and  _302
REMARK  115  A    between atoms: _302  and  _303
REMARK  116  A    between atoms: _306  and  _308
REMARK  117  A    between atoms: _308  and  _309
REMARK  118  A    between atoms: _308  and  _311
REMARK  119  A    between atoms: _311  and  _312
REMARK  120  A    between atoms: _317  and  _319
REMARK  121  A    between atoms: _319  and  _320
REMARK  122  A    between atoms: _319  and  _322
REMARK  123  A    between atoms: _322  and  _323
REMARK  124  A    between atoms: _323  and  _324
REMARK  125  A    between atoms: _327  and  _329
REMARK  126  A    between atoms: _329  and  _330
REMARK  127  A    between atoms: _329  and  _332
REMARK  128  A    between atoms: _332  and  _333
REMARK  129  A    between atoms: _333  and  _334
REMARK  130  A    between atoms: _334  and  _335
REMARK  131  A    between atoms: _335  and  CA_419
REMARK  132  A    between atoms: _337  and  _339
REMARK  133  A    between atoms: _339  and  _340
REMARK  134  A    between atoms: _339  and  _342
REMARK  135  A    between atoms: _342  and  _343
REMARK  136  A    between atoms: _345  and  _347
REMARK  137  A    between atoms: _347  and  _348
REMARK  138  A    between atoms: _351  and  _353
REMARK  139  A    between atoms: _353  and  _354
REMARK  140  A    between atoms: _356  and  _358
REMARK  141  A    between atoms: _358  and  _359
REMARK  142  A    between atoms: _358  and  _361
REMARK  143  A    between atoms: _361  and  _362
REMARK  144  A    between atoms: _362  and  _363
REMARK  145  A    between atoms: _363  and  _365
REMARK  146  A    between atoms: _365  and  CA_419
REMARK  147  A    between atoms: _366  and  _368
REMARK  148  A    between atoms: _368  and  _369
REMARK  149  A    between atoms: _368  and  _371
REMARK  150  A    between atoms: _371  and  _372
REMARK  151  A    between atoms: _377  and  _378
REMARK  152  A    between atoms: _380  and  _382
REMARK  153  A    between atoms: _382  and  _383
REMARK  154  A    between atoms: _382  and  _385
REMARK  155  A    between atoms: _385  and  _386
REMARK  156  A    between atoms: _392  and  _394
REMARK  157  A    between atoms: _394  and  _395
REMARK  158  A    between atoms: _394  and  _397
REMARK  159  A    between atoms: _397  and  _398
REMARK  160  A    between atoms: _401  and  _403
REMARK  161  A    between atoms: _403  and  _404
REMARK  162  A    between atoms: _403  and  _406
REMARK  163  A    between atoms: _406  and  _407
REMARK  164  A    between atoms: _410  and  _412
REMARK  165  A    between atoms: _412  and  _413
REMARK  166  A    between atoms: _412  and  _415
REMARK  167  A    between atoms: _415  and  _416
REMARK  168  A    between atoms: _416  and  _417
REMARK                            x       y       z     vdW  Elec       q    Type
REMARK                         _______ _______ _______ _____ _____    ______ ____
ROOT
ATOM      1  CG  TRP A   1      29.199  39.842  66.281  0.00  0.00    -0.002 A 
ATOM      2  CD2 TRP A   1      29.153  41.050  67.044  0.00  0.00    +0.013 A 
ATOM      3  CE2 TRP A   1      28.246  40.837  68.116  0.00  0.00    +0.056 A 
ATOM      4  CZ2 TRP A   1      27.971  41.819  69.081  0.00  0.00    +0.017 A 
ATOM      5  CH2 TRP A   1      28.593  43.031  68.940  0.00  0.00    +0.001 A 
ATOM      6  CZ3 TRP A   1      29.489  43.288  67.865  0.00  0.00    +0.000 A 
ATOM      7  NE1 TRP A   1      27.776  39.556  68.007  0.00  0.00    -0.352 N 
ATOM      8  HE1 TRP A   1      27.110  39.099  68.662  0.00  0.00    +0.166 HD
ATOM      9  CE3 TRP A   1      29.759  42.312  66.907  0.00  0.00    +0.001 A 
ATOM     10  CD1 TRP A   1      28.327  38.971  66.892  0.00  0.00    +0.068 A 
ENDROOT
BRANCH   1  11
ATOM     11  CB  TRP A   1      29.990  39.598  64.996  0.00  0.00    +0.053 C 
BRANCH  11  12
ATOM     12  CA  TRP A   1      31.354  38.933  65.148  0.00  0.00    +0.137 C 
BRANCH  12  13
ATOM     13  N   TRP A   1      32.376  39.855  65.702  0.00  0.00    -0.239 NA
ATOM     14  H   TRP A   1      32.214  40.882  65.675  0.00  0.00    +0.142 HD
ENDBRANCH  12  13
BRANCH  12  15
ATOM     15  C   TRP A   1      31.792  38.446  63.777  0.00  0.00    +0.224 C 
ATOM     16  O   TRP A   1      31.447  37.340  63.357  0.00  0.00    -0.287 OA
ENDBRANCH  12  15
ENDBRANCH  11  12
ENDBRANCH   1  11
TORSDOF 4
REMARK  Name = ../refined-set-2016/2jkp/2jkp_pocket.pdb
REMARK  168 active torsions:
REMARK  status: ('A' for Active; 'I' for Inactive)
REMARK    1  A    between atoms: _1  and  _3
REMARK    2  A    between atoms: _3  and  _4
REMARK    3  A    between atoms: _3  and  _6
REMARK    4  A    between atoms: _6  and  _7
REMARK    5  A    between atoms: _7  and  _8
REMARK    6  A    between atoms: _11  and  _13
REMARK    7  A    between atoms: _13  and  _14
REMARK    8  A    between atoms: _13  and  _16
REMARK    9  A    between atoms: _16  and  _17
REMARK   10  A    between atoms: _19  and  _21
REMARK   11  A    between atoms: _21  and  _22
REMARK   12  A    between atoms: _21  and  _24
REMARK   13  A    between atoms: _24  and  _25
REMARK   14  A    between atoms: _30  and  _31
REMARK   15  A    between atoms: _33  and  _35
REMARK   16  A    between atoms: _35  and  _36
REMARK   17  A    between atoms: _35  and  _38
REMARK   18  A    between atoms: _41  and  _43
REMARK   19  A    between atoms: _43  and  _44
REMARK   20  A    between atoms: _43  and  _46
REMARK   21  A    between atoms: _46  and  _47
REMARK   22  A    between atoms: _57  and  _59
REMARK   23  A    between atoms: _59  and  _60
REMARK   24  A    between atoms: _59  and  _62
REMARK   25  A    between atoms: _62  and  _63
REMARK   26  A    between atoms: _73  and  _75
REMARK   27  A    between atoms: _75  and  _76
REMARK   28  A    between atoms: _75  and  _78
REMARK   29  A    between atoms: _78  and  _79
REMARK   30  A    between atoms: _79  and  _80
REMARK   31  A    between atoms: _82  and  _84
REMARK   32  A    between atoms: _84  and  _85
REMARK   33  A    between atoms: _84  and  _87
REMARK   34  A    between atoms: _87  and  _88
REMARK   35  A    between atoms: _91  and  _93
REMARK   36  A    between atoms: _93  and  _94
REMARK   37  A    between atoms: _93  and  _96
REMARK   38  A    between atoms: _96  and  _97
REMARK   39  A    between atoms: _107  and  _109
REMARK   40  A    between atoms: _109  and  _110
REMARK   41  A    between atoms: _109  and  _112
REMARK   42  A    between atoms: _112  and  _113
REMARK   43  A    between atoms: _116  and  _118
REMARK   44  A    between atoms: _118  and  _119
REMARK   45  A    between atoms: _118  and  _121
REMARK   46  A    between atoms: _121  and  _122
REMARK   47  A    between atoms: _122  and  _123
REMARK   48  A    between atoms: _126  and  _128
REMARK   49  A    between atoms: _128  and  _129
REMARK   50  A    between atoms: _131  and  _133
REMARK   51  A    between atoms: _133  and  _134
REMARK   52  A    between atoms: _133  and  _136
REMARK   53  A    between atoms: _136  and  _137
REMARK   54  A    between atoms: _147  and  _149
REMARK   55  A    between atoms: _149  and  _150
REMARK   56  A    between atoms: _149  and  _152
REMARK   57  A    between atoms: _152  and  _153
REMARK   58  A    between atoms: _163  and  _165
REMARK   59  A    between atoms: _165  and  _166
REMARK   60  A    between atoms: _165  and  _168
REMARK   61  A    between atoms: _168  and  _169
REMARK   62  A    between atoms: _175  and  _177
REMARK   63  A    between atoms: _177  and  _178
REMARK   64  A    between atoms: _177  and  _180
REMARK   65  A    between atoms: _180  and  _181
REMARK   66  A    between atoms: _187  and  _189
REMARK   67  A    between atoms: _189  and  _190
REMARK   68  A    between atoms: _189  and  _192
REMARK   69  A    between atoms: _192  and  _193
REMARK   70  A    between atoms: _198  and  _200
REMARK   71  A    between atoms: _200  and  _201
REMARK   72  A    between atoms: _200  and  _203
REMARK   73  A    between atoms: _203  and  _204
REMARK   74  A    between atoms: _209  and  _211
REMARK   75  A    between atoms: _211  and  _212
REMARK   76  A    between atoms: _211  and  _214
REMARK   77  A    between atoms: _214  and  _215
REMARK   78  A    between atoms: _215  and  _216
REMARK   79  A    between atoms: _219  and  _221
REMARK   80  A    between atoms: _221  and  _222
REMARK   81  A    between atoms: _221  and  _224
REMARK   82  A    between atoms: _224  and  _225
REMARK   83  A    between atoms: _228  and  _230
REMARK   84  A    between atoms: _230  and  _231
REMARK   85  A    between atoms: _230  and  _233
REMARK   86  A    between atoms: _233  and  _234
REMARK   87  A    between atoms: _236  and  _238
REMARK   88  A    between atoms: _238  and  _239
REMARK   89  A    between atoms: _238  and  _241
REMARK   90  A    between atoms: _241  and  _242
REMARK   91  A    between atoms: _242  and  _243
REMARK   92  A    between atoms: _243  and  _244
REMARK   93  A    between atoms: _244  and  _245
REMARK   94  A    between atoms: _249  and  _251
REMARK   95  A    between atoms: _251  and  _252
REMARK   96  A    between atoms: _251  and  _254
REMARK   97  A    between atoms: _254  and  _255
REMARK   98  A    between atoms: _257  and  _259
REMARK   99  A    between atoms: _259  and  _260
REMARK  100  A    between atoms: _262  and  _264
REMARK  101  A    between atoms: _264  and  _265
REMARK  102  A    between atoms: _264  and  _267
REMARK  103  A    between atoms: _267  and  _268
REMARK  104  A    between atoms: _273  and  _274
REMARK  105  A    between atoms: _276  and  _278
REMARK  106  A    between atoms: _278  and  _279
REMARK  107  A    between atoms: _278  and  _281
REMARK  108  A    between atoms: _284  and  _286
REMARK  109  A    between atoms: _286  and  _287
REMARK  110  A    between atoms: _289  and  _291
REMARK  111  A    between atoms: _291  and  _292
REMARK  112  A    between atoms: _291  and  _294
REMARK  113  A    between atoms: _294  and  _295
REMARK  114  A    between atoms: _300  and  _302
REMARK  115  A    between atoms: _302  and  _303
REMARK  116  A    between atoms: _306  and  _308
REMARK  117  A    between atoms: _308  and  _309
REMARK  118  A    between atoms: _308  and  _311
REMARK  119  A    between atoms: _311  and  _312
REMARK  120  A    between atoms: _317  and  _319
REMARK  121  A    between atoms: _319  and  _320
REMARK  122  A    between atoms: _319  and  _322
REMARK  123  A    between atoms: _322  and  _323
REMARK  124  A    between atoms: _323  and  _324
REMARK  125  A    between atoms: _327  and  _329
REMARK  126  A    between atoms: _329  and  _330
REMARK  127  A    between atoms: _329  and  _332
REMARK  128  A    between atoms: _332  and  _333
REMARK  129  A    between atoms: _333  and  _334
REMARK  130  A    between atoms: _334  and  _335
REMARK  131  A    between atoms: _335  and  CA_419
REMARK  132  A    between atoms: _337  and  _339
REMARK  133  A    between atoms: _339  and  _340
REMARK  134  A    between atoms: _339  and  _342
REMARK  135  A    between atoms: _342  and  _343
REMARK  136  A    between atoms: _345  and  _347
REMARK  137  A    between atoms: _347  and  _348
REMARK  138  A    between atoms: _351  and  _353
REMARK  139  A    between atoms: _353  and  _354
REMARK  140  A    between atoms: _356  and  _358
REMARK  141  A    between atoms: _358  and  _359
REMARK  142  A    between atoms: _358  and  _361
REMARK  143  A    between atoms: _361  and  _362
REMARK  144  A    between atoms: _362  and  _363
REMARK  145  A    between atoms: _363  and  _365
REMARK  146  A    between atoms: _365  and  CA_419
REMARK  147  A    between atoms: _366  and  _368
REMARK  148  A    between atoms: _368  and  _369
REMARK  149  A    between atoms: _368  and  _371
REMARK  150  A    between atoms: _371  and  _372
REMARK  151  A    between atoms: _377  and  _378
REMARK  152  A    between atoms: _380  and  _382
REMARK  153  A    between atoms: _382  and  _383
REMARK  154  A    between atoms: _382  and  _385
REMARK  155  A    between atoms: _385  and  _386
REMARK  156  A    between atoms: _392  and  _394
REMARK  157  A    between atoms: _394  and  _395
REMARK  158  A    between atoms: _394  and  _397
REMARK  159  A    between atoms: _397  and  _398
REMARK  160  A    between atoms: _401  and  _403
REMARK  161  A    between atoms: _403  and  _404
REMARK  162  A    between atoms: _403  and  _406
REMARK  163  A    between atoms: _406  and  _407
REMARK  164  A    between atoms: _410  and  _412
REMARK  165  A    between atoms: _412  and  _413
REMARK  166  A    between atoms: _412  and  _415
REMARK  167  A    between atoms: _415  and  _416
REMARK  168  A    between atoms: _416  and  _417
REMARK                            x       y       z     vdW  Elec       q    Type
REMARK                         _______ _______ _______ _____ _____    ______ ____
ROOT
ATOM      1  CA  LEU A   1      24.860  31.212  73.207  0.00  0.00    +0.133 C 
ENDROOT
BRANCH   1   2
ATOM      2  N   LEU A   1      25.217  30.399  74.376  0.00  0.00    -0.239 NA
ATOM      3  H   LEU A   1      25.455  30.882  75.266  0.00  0.00    +0.142 HD
ENDBRANCH   1   2
BRANCH   1   4
ATOM      4  C   LEU A   1      26.152  31.456  72.431  0.00  0.00    +0.224 C 
ATOM      5  O   LEU A   1      27.186  31.647  73.031  0.00  0.00    -0.287 OA
ENDBRANCH   1   4
BRANCH   1   6
ATOM      6  CB  LEU A   1      24.296  32.570  73.652  0.00  0.00    +0.025 C 
BRANCH   6   7
ATOM      7  CG  LEU A   1      24.177  33.661  72.596  0.00  0.00    +0.002 C 
ATOM      8  CD2 LEU A   1      23.864  34.948  73.249  0.00  0.00    +0.000 C 
ATOM      9  CD1 LEU A   1      23.095  33.329  71.566  0.00  0.00    +0.000 C 
ENDBRANCH   6   7
ENDBRANCH   1   6
TORSDOF 4
REMARK  Name = ../refined-set-2016/2jkp/2jkp_pocket.pdb
REMARK  168 active torsions:
REMARK  status: ('A' for Active; 'I' for Inactive)
REMARK    1  A    between atoms: _1  and  _3
REMARK    2  A    between atoms: _3  and  _4
REMARK    3  A    between atoms: _3  and  _6
REMARK    4  A    between atoms: _6  and  _7
REMARK    5  A    between atoms: _7  and  _8
REMARK    6  A    between atoms: _11  and  _13
REMARK    7  A    between atoms: _13  and  _14
REMARK    8  A    between atoms: _13  and  _16
REMARK    9  A    between atoms: _16  and  _17
REMARK   10  A    between atoms: _19  and  _21
REMARK   11  A    between atoms: _21  and  _22
REMARK   12  A    between atoms: _21  and  _24
REMARK   13  A    between atoms: _24  and  _25
REMARK   14  A    between atoms: _30  and  _31
REMARK   15  A    between atoms: _33  and  _35
REMARK   16  A    between atoms: _35  and  _36
REMARK   17  A    between atoms: _35  and  _38
REMARK   18  A    between atoms: _41  and  _43
REMARK   19  A    between atoms: _43  and  _44
REMARK   20  A    between atoms: _43  and  _46
REMARK   21  A    between atoms: _46  and  _47
REMARK   22  A    between atoms: _57  and  _59
REMARK   23  A    between atoms: _59  and  _60
REMARK   24  A    between atoms: _59  and  _62
REMARK   25  A    between atoms: _62  and  _63
REMARK   26  A    between atoms: _73  and  _75
REMARK   27  A    between atoms: _75  and  _76
REMARK   28  A    between atoms: _75  and  _78
REMARK   29  A    between atoms: _78  and  _79
REMARK   30  A    between atoms: _79  and  _80
REMARK   31  A    between atoms: _82  and  _84
REMARK   32  A    between atoms: _84  and  _85
REMARK   33  A    between atoms: _84  and  _87
REMARK   34  A    between atoms: _87  and  _88
REMARK   35  A    between atoms: _91  and  _93
REMARK   36  A    between atoms: _93  and  _94
REMARK   37  A    between atoms: _93  and  _96
REMARK   38  A    between atoms: _96  and  _97
REMARK   39  A    between atoms: _107  and  _109
REMARK   40  A    between atoms: _109  and  _110
REMARK   41  A    between atoms: _109  and  _112
REMARK   42  A    between atoms: _112  and  _113
REMARK   43  A    between atoms: _116  and  _118
REMARK   44  A    between atoms: _118  and  _119
REMARK   45  A    between atoms: _118  and  _121
REMARK   46  A    between atoms: _121  and  _122
REMARK   47  A    between atoms: _122  and  _123
REMARK   48  A    between atoms: _126  and  _128
REMARK   49  A    between atoms: _128  and  _129
REMARK   50  A    between atoms: _131  and  _133
REMARK   51  A    between atoms: _133  and  _134
REMARK   52  A    between atoms: _133  and  _136
REMARK   53  A    between atoms: _136  and  _137
REMARK   54  A    between atoms: _147  and  _149
REMARK   55  A    between atoms: _149  and  _150
REMARK   56  A    between atoms: _149  and  _152
REMARK   57  A    between atoms: _152  and  _153
REMARK   58  A    between atoms: _163  and  _165
REMARK   59  A    between atoms: _165  and  _166
REMARK   60  A    between atoms: _165  and  _168
REMARK   61  A    between atoms: _168  and  _169
REMARK   62  A    between atoms: _175  and  _177
REMARK   63  A    between atoms: _177  and  _178
REMARK   64  A    between atoms: _177  and  _180
REMARK   65  A    between atoms: _180  and  _181
REMARK   66  A    between atoms: _187  and  _189
REMARK   67  A    between atoms: _189  and  _190
REMARK   68  A    between atoms: _189  and  _192
REMARK   69  A    between atoms: _192  and  _193
REMARK   70  A    between atoms: _198  and  _200
REMARK   71  A    between atoms: _200  and  _201
REMARK   72  A    between atoms: _200  and  _203
REMARK   73  A    between atoms: _203  and  _204
REMARK   74  A    between atoms: _209  and  _211
REMARK   75  A    between atoms: _211  and  _212
REMARK   76  A    between atoms: _211  and  _214
REMARK   77  A    between atoms: _214  and  _215
REMARK   78  A    between atoms: _215  and  _216
REMARK   79  A    between atoms: _219  and  _221
REMARK   80  A    between atoms: _221  and  _222
REMARK   81  A    between atoms: _221  and  _224
REMARK   82  A    between atoms: _224  and  _225
REMARK   83  A    between atoms: _228  and  _230
REMARK   84  A    between atoms: _230  and  _231
REMARK   85  A    between atoms: _230  and  _233
REMARK   86  A    between atoms: _233  and  _234
REMARK   87  A    between atoms: _236  and  _238
REMARK   88  A    between atoms: _238  and  _239
REMARK   89  A    between atoms: _238  and  _241
REMARK   90  A    between atoms: _241  and  _242
REMARK   91  A    between atoms: _242  and  _243
REMARK   92  A    between atoms: _243  and  _244
REMARK   93  A    between atoms: _244  and  _245
REMARK   94  A    between atoms: _249  and  _251
REMARK   95  A    between atoms: _251  and  _252
REMARK   96  A    between atoms: _251  and  _254
REMARK   97  A    between atoms: _254  and  _255
REMARK   98  A    between atoms: _257  and  _259
REMARK   99  A    between atoms: _259  and  _260
REMARK  100  A    between atoms: _262  and  _264
REMARK  101  A    between atoms: _264  and  _265
REMARK  102  A    between atoms: _264  and  _267
REMARK  103  A    between atoms: _267  and  _268
REMARK  104  A    between atoms: _273  and  _274
REMARK  105  A    between atoms: _276  and  _278
REMARK  106  A    between atoms: _278  and  _279
REMARK  107  A    between atoms: _278  and  _281
REMARK  108  A    between atoms: _284  and  _286
REMARK  109  A    between atoms: _286  and  _287
REMARK  110  A    between atoms: _289  and  _291
REMARK  111  A    between atoms: _291  and  _292
REMARK  112  A    between atoms: _291  and  _294
REMARK  113  A    between atoms: _294  and  _295
REMARK  114  A    between atoms: _300  and  _302
REMARK  115  A    between atoms: _302  and  _303
REMARK  116  A    between atoms: _306  and  _308
REMARK  117  A    between atoms: _308  and  _309
REMARK  118  A    between atoms: _308  and  _311
REMARK  119  A    between atoms: _311  and  _312
REMARK  120  A    between atoms: _317  and  _319
REMARK  121  A    between atoms: _319  and  _320
REMARK  122  A    between atoms: _319  and  _322
REMARK  123  A    between atoms: _322  and  _323
REMARK  124  A    between atoms: _323  and  _324
REMARK  125  A    between atoms: _327  and  _329
REMARK  126  A    between atoms: _329  and  _330
REMARK  127  A    between atoms: _329  and  _332
REMARK  128  A    between atoms: _332  and  _333
REMARK  129  A    between atoms: _333  and  _334
REMARK  130  A    between atoms: _334  and  _335
REMARK  131  A    between atoms: _335  and  CA_419
REMARK  132  A    between atoms: _337  and  _339
REMARK  133  A    between atoms: _339  and  _340
REMARK  134  A    between atoms: _339  and  _342
REMARK  135  A    between atoms: _342  and  _343
REMARK  136  A    between atoms: _345  and  _347
REMARK  137  A    between atoms: _347  and  _348
REMARK  138  A    between atoms: _351  and  _353
REMARK  139  A    between atoms: _353  and  _354
REMARK  140  A    between atoms: _356  and  _358
REMARK  141  A    between atoms: _358  and  _359
REMARK  142  A    between atoms: _358  and  _361
REMARK  143  A    between atoms: _361  and  _362
REMARK  144  A    between atoms: _362  and  _363
REMARK  145  A    between atoms: _363  and  _365
REMARK  146  A    between atoms: _365  and  CA_419
REMARK  147  A    between atoms: _366  and  _368
REMARK  148  A    between atoms: _368  and  _369
REMARK  149  A    between atoms: _368  and  _371
REMARK  150  A    between atoms: _371  and  _372
REMARK  151  A    between atoms: _377  and  _378
REMARK  152  A    between atoms: _380  and  _382
REMARK  153  A    between atoms: _382  and  _383
REMARK  154  A    between atoms: _382  and  _385
REMARK  155  A    between atoms: _385  and  _386
REMARK  156  A    between atoms: _392  and  _394
REMARK  157  A    between atoms: _394  and  _395
REMARK  158  A    between atoms: _394  and  _397
REMARK  159  A    between atoms: _397  and  _398
REMARK  160  A    between atoms: _401  and  _403
REMARK  161  A    between atoms: _403  and  _404
REMARK  162  A    between atoms: _403  and  _406
REMARK  163  A    between atoms: _406  and  _407
REMARK  164  A    between atoms: _410  and  _412
REMARK  165  A    between atoms: _412  and  _413
REMARK  166  A    between atoms: _412  and  _415
REMARK  167  A    between atoms: _415  and  _416
REMARK  168  A    between atoms: _416  and  _417
REMARK                            x       y       z     vdW  Elec       q    Type
REMARK                         _______ _______ _______ _____ _____    ______ ____
ROOT
ATOM      1  CA  GLU A   1      27.095  35.065  68.297  0.00  0.00    +0.145 C 
ENDROOT
BRANCH   1   2
ATOM      2  C   GLU A   1      28.249  35.150  67.306  0.00  0.00    +0.238 C 
ATOM      3  O   GLU A   1      29.422  34.951  67.675  0.00  0.00    -0.274 OA
ATOM      4  N   GLY A   2      27.914  35.420  66.050  0.00  0.00    -0.297 N 
ATOM      5  H   GLY A   2      26.909  35.509  65.798  0.00  0.00    +0.150 HD
BRANCH   4   6
ATOM      6  CA  GLY A   2      28.937  35.596  65.010  0.00  0.00    +0.163 C 
BRANCH   6   7
ATOM      7  C   GLY A   2      29.283  34.267  64.357  0.00  0.00    +0.229 C 
ATOM      8  O   GLY A   2      30.320  34.145  63.744  0.00  0.00    -0.286 OA
ENDBRANCH   6   7
ENDBRANCH   4   6
ENDBRANCH   1   2
BRANCH   1   9
ATOM      9  N   GLU A   1      27.413  34.057  69.307  0.00  0.00    -0.238 NA
ATOM     10  H   GLU A   1      28.121  34.264  70.041  0.00  0.00    +0.142 HD
ENDBRANCH   1   9
BRANCH   1  11
ATOM     11  CB  GLU A   1      26.781  36.439  68.905  0.00  0.00    +0.038 C 
BRANCH  11  12
ATOM     12  CG  GLU A   1      25.598  36.389  69.917  0.00  0.00    +0.116 C 
BRANCH  12  13
ATOM     13  CD  GLU A   1      25.038  37.726  70.262  0.00  0.00    +0.365 C 
ATOM     14  OE2 GLU A   1      23.953  37.765  70.939  0.00  0.00    -0.246 OA
ATOM     15  OE1 GLU A   1      25.641  38.738  69.844  0.00  0.00    -0.246 OA
ENDBRANCH  12  13
ENDBRANCH  11  12
ENDBRANCH   1  11
TORSDOF 7
REMARK  Name = ../refined-set-2016/2jkp/2jkp_pocket.pdb
REMARK  168 active torsions:
REMARK  status: ('A' for Active; 'I' for Inactive)
REMARK    1  A    between atoms: _1  and  _3
REMARK    2  A    between atoms: _3  and  _4
REMARK    3  A    between atoms: _3  and  _6
REMARK    4  A    between atoms: _6  and  _7
REMARK    5  A    between atoms: _7  and  _8
REMARK    6  A    between atoms: _11  and  _13
REMARK    7  A    between atoms: _13  and  _14
REMARK    8  A    between atoms: _13  and  _16
REMARK    9  A    between atoms: _16  and  _17
REMARK   10  A    between atoms: _19  and  _21
REMARK   11  A    between atoms: _21  and  _22
REMARK   12  A    between atoms: _21  and  _24
REMARK   13  A    between atoms: _24  and  _25
REMARK   14  A    between atoms: _30  and  _31
REMARK   15  A    between atoms: _33  and  _35
REMARK   16  A    between atoms: _35  and  _36
REMARK   17  A    between atoms: _35  and  _38
REMARK   18  A    between atoms: _41  and  _43
REMARK   19  A    between atoms: _43  and  _44
REMARK   20  A    between atoms: _43  and  _46
REMARK   21  A    between atoms: _46  and  _47
REMARK   22  A    between atoms: _57  and  _59
REMARK   23  A    between atoms: _59  and  _60
REMARK   24  A    between atoms: _59  and  _62
REMARK   25  A    between atoms: _62  and  _63
REMARK   26  A    between atoms: _73  and  _75
REMARK   27  A    between atoms: _75  and  _76
REMARK   28  A    between atoms: _75  and  _78
REMARK   29  A    between atoms: _78  and  _79
REMARK   30  A    between atoms: _79  and  _80
REMARK   31  A    between atoms: _82  and  _84
REMARK   32  A    between atoms: _84  and  _85
REMARK   33  A    between atoms: _84  and  _87
REMARK   34  A    between atoms: _87  and  _88
REMARK   35  A    between atoms: _91  and  _93
REMARK   36  A    between atoms: _93  and  _94
REMARK   37  A    between atoms: _93  and  _96
REMARK   38  A    between atoms: _96  and  _97
REMARK   39  A    between atoms: _107  and  _109
REMARK   40  A    between atoms: _109  and  _110
REMARK   41  A    between atoms: _109  and  _112
REMARK   42  A    between atoms: _112  and  _113
REMARK   43  A    between atoms: _116  and  _118
REMARK   44  A    between atoms: _118  and  _119
REMARK   45  A    between atoms: _118  and  _121
REMARK   46  A    between atoms: _121  and  _122
REMARK   47  A    between atoms: _122  and  _123
REMARK   48  A    between atoms: _126  and  _128
REMARK   49  A    between atoms: _128  and  _129
REMARK   50  A    between atoms: _131  and  _133
REMARK   51  A    between atoms: _133  and  _134
REMARK   52  A    between atoms: _133  and  _136
REMARK   53  A    between atoms: _136  and  _137
REMARK   54  A    between atoms: _147  and  _149
REMARK   55  A    between atoms: _149  and  _150
REMARK   56  A    between atoms: _149  and  _152
REMARK   57  A    between atoms: _152  and  _153
REMARK   58  A    between atoms: _163  and  _165
REMARK   59  A    between atoms: _165  and  _166
REMARK   60  A    between atoms: _165  and  _168
REMARK   61  A    between atoms: _168  and  _169
REMARK   62  A    between atoms: _175  and  _177
REMARK   63  A    between atoms: _177  and  _178
REMARK   64  A    between atoms: _177  and  _180
REMARK   65  A    between atoms: _180  and  _181
REMARK   66  A    between atoms: _187  and  _189
REMARK   67  A    between atoms: _189  and  _190
REMARK   68  A    between atoms: _189  and  _192
REMARK   69  A    between atoms: _192  and  _193
REMARK   70  A    between atoms: _198  and  _200
REMARK   71  A    between atoms: _200  and  _201
REMARK   72  A    between atoms: _200  and  _203
REMARK   73  A    between atoms: _203  and  _204
REMARK   74  A    between atoms: _209  and  _211
REMARK   75  A    between atoms: _211  and  _212
REMARK   76  A    between atoms: _211  and  _214
REMARK   77  A    between atoms: _214  and  _215
REMARK   78  A    between atoms: _215  and  _216
REMARK   79  A    between atoms: _219  and  _221
REMARK   80  A    between atoms: _221  and  _222
REMARK   81  A    between atoms: _221  and  _224
REMARK   82  A    between atoms: _224  and  _225
REMARK   83  A    between atoms: _228  and  _230
REMARK   84  A    between atoms: _230  and  _231
REMARK   85  A    between atoms: _230  and  _233
REMARK   86  A    between atoms: _233  and  _234
REMARK   87  A    between atoms: _236  and  _238
REMARK   88  A    between atoms: _238  and  _239
REMARK   89  A    between atoms: _238  and  _241
REMARK   90  A    between atoms: _241  and  _242
REMARK   91  A    between atoms: _242  and  _243
REMARK   92  A    between atoms: _243  and  _244
REMARK   93  A    between atoms: _244  and  _245
REMARK   94  A    between atoms: _249  and  _251
REMARK   95  A    between atoms: _251  and  _252
REMARK   96  A    between atoms: _251  and  _254
REMARK   97  A    between atoms: _254  and  _255
REMARK   98  A    between atoms: _257  and  _259
REMARK   99  A    between atoms: _259  and  _260
REMARK  100  A    between atoms: _262  and  _264
REMARK  101  A    between atoms: _264  and  _265
REMARK  102  A    between atoms: _264  and  _267
REMARK  103  A    between atoms: _267  and  _268
REMARK  104  A    between atoms: _273  and  _274
REMARK  105  A    between atoms: _276  and  _278
REMARK  106  A    between atoms: _278  and  _279
REMARK  107  A    between atoms: _278  and  _281
REMARK  108  A    between atoms: _284  and  _286
REMARK  109  A    between atoms: _286  and  _287
REMARK  110  A    between atoms: _289  and  _291
REMARK  111  A    between atoms: _291  and  _292
REMARK  112  A    between atoms: _291  and  _294
REMARK  113  A    between atoms: _294  and  _295
REMARK  114  A    between atoms: _300  and  _302
REMARK  115  A    between atoms: _302  and  _303
REMARK  116  A    between atoms: _306  and  _308
REMARK  117  A    between atoms: _308  and  _309
REMARK  118  A    between atoms: _308  and  _311
REMARK  119  A    between atoms: _311  and  _312
REMARK  120  A    between atoms: _317  and  _319
REMARK  121  A    between atoms: _319  and  _320
REMARK  122  A    between atoms: _319  and  _322
REMARK  123  A    between atoms: _322  and  _323
REMARK  124  A    between atoms: _323  and  _324
REMARK  125  A    between atoms: _327  and  _329
REMARK  126  A    between atoms: _329  and  _330
REMARK  127  A    between atoms: _329  and  _332
REMARK  128  A    between atoms: _332  and  _333
REMARK  129  A    between atoms: _333  and  _334
REMARK  130  A    between atoms: _334  and  _335
REMARK  131  A    between atoms: _335  and  CA_419
REMARK  132  A    between atoms: _337  and  _339
REMARK  133  A    between atoms: _339  and  _340
REMARK  134  A    between atoms: _339  and  _342
REMARK  135  A    between atoms: _342  and  _343
REMARK  136  A    between atoms: _345  and  _347
REMARK  137  A    between atoms: _347  and  _348
REMARK  138  A    between atoms: _351  and  _353
REMARK  139  A    between atoms: _353  and  _354
REMARK  140  A    between atoms: _356  and  _358
REMARK  141  A    between atoms: _358  and  _359
REMARK  142  A    between atoms: _358  and  _361
REMARK  143  A    between atoms: _361  and  _362
REMARK  144  A    between atoms: _362  and  _363
REMARK  145  A    between atoms: _363  and  _365
REMARK  146  A    between atoms: _365  and  CA_419
REMARK  147  A    between atoms: _366  and  _368
REMARK  148  A    between atoms: _368  and  _369
REMARK  149  A    between atoms: _368  and  _371
REMARK  150  A    between atoms: _371  and  _372
REMARK  151  A    between atoms: _377  and  _378
REMARK  152  A    between atoms: _380  and  _382
REMARK  153  A    between atoms: _382  and  _383
REMARK  154  A    between atoms: _382  and  _385
REMARK  155  A    between atoms: _385  and  _386
REMARK  156  A    between atoms: _392  and  _394
REMARK  157  A    between atoms: _394  and  _395
REMARK  158  A    between atoms: _394  and  _397
REMARK  159  A    between atoms: _397  and  _398
REMARK  160  A    between atoms: _401  and  _403
REMARK  161  A    between atoms: _403  and  _404
REMARK  162  A    between atoms: _403  and  _406
REMARK  163  A    between atoms: _406  and  _407
REMARK  164  A    between atoms: _410  and  _412
REMARK  165  A    between atoms: _412  and  _413
REMARK  166  A    between atoms: _412  and  _415
REMARK  167  A    between atoms: _415  and  _416
REMARK  168  A    between atoms: _416  and  _417
REMARK                            x       y       z     vdW  Elec       q    Type
REMARK                         _______ _______ _______ _____ _____    ______ ____
ROOT
ATOM      1  CG  TRP A   1      28.040  38.381  61.991  0.00  0.00    -0.002 A 
ATOM      2  CD2 TRP A   1      27.191  39.079  62.918  0.00  0.00    +0.013 A 
ATOM      3  CE2 TRP A   1      26.277  38.143  63.433  0.00  0.00    +0.056 A 
ATOM      4  CZ2 TRP A   1      25.294  38.488  64.372  0.00  0.00    +0.017 A 
ATOM      5  CH2 TRP A   1      25.293  39.783  64.832  0.00  0.00    +0.001 A 
ATOM      6  CZ3 TRP A   1      26.196  40.737  64.347  0.00  0.00    +0.000 A 
ATOM      7  NE1 TRP A   1      26.517  36.950  62.801  0.00  0.00    -0.352 N 
ATOM      8  HE1 TRP A   1      25.982  36.069  62.940  0.00  0.00    +0.166 HD
ATOM      9  CE3 TRP A   1      27.162  40.387  63.397  0.00  0.00    +0.001 A 
ATOM     10  CD1 TRP A   1      27.594  37.117  61.945  0.00  0.00    +0.068 A 
ENDROOT
BRANCH   1  11
ATOM     11  CB  TRP A   1      29.174  38.983  61.175  0.00  0.00    +0.053 C 
BRANCH  11  12
ATOM     12  CA  TRP A   1      28.672  39.632  59.863  0.00  0.00    +0.137 C 
BRANCH  12  13
ATOM     13  N   TRP A   1      28.580  38.628  58.768  0.00  0.00    -0.239 NA
ATOM     14  H   TRP A   1      29.074  37.718  58.864  0.00  0.00    +0.142 HD
ENDBRANCH  12  13
BRANCH  12  15
ATOM     15  C   TRP A   1      29.520  40.815  59.485  0.00  0.00    +0.224 C 
ATOM     16  O   TRP A   1      29.404  41.901  60.063  0.00  0.00    -0.287 OA
ENDBRANCH  12  15
ENDBRANCH  11  12
ENDBRANCH   1  11
TORSDOF 4
REMARK  Name = ../refined-set-2016/2jkp/2jkp_pocket.pdb
REMARK  168 active torsions:
REMARK  status: ('A' for Active; 'I' for Inactive)
REMARK    1  A    between atoms: _1  and  _3
REMARK    2  A    between atoms: _3  and  _4
REMARK    3  A    between atoms: _3  and  _6
REMARK    4  A    between atoms: _6  and  _7
REMARK    5  A    between atoms: _7  and  _8
REMARK    6  A    between atoms: _11  and  _13
REMARK    7  A    between atoms: _13  and  _14
REMARK    8  A    between atoms: _13  and  _16
REMARK    9  A    between atoms: _16  and  _17
REMARK   10  A    between atoms: _19  and  _21
REMARK   11  A    between atoms: _21  and  _22
REMARK   12  A    between atoms: _21  and  _24
REMARK   13  A    between atoms: _24  and  _25
REMARK   14  A    between atoms: _30  and  _31
REMARK   15  A    between atoms: _33  and  _35
REMARK   16  A    between atoms: _35  and  _36
REMARK   17  A    between atoms: _35  and  _38
REMARK   18  A    between atoms: _41  and  _43
REMARK   19  A    between atoms: _43  and  _44
REMARK   20  A    between atoms: _43  and  _46
REMARK   21  A    between atoms: _46  and  _47
REMARK   22  A    between atoms: _57  and  _59
REMARK   23  A    between atoms: _59  and  _60
REMARK   24  A    between atoms: _59  and  _62
REMARK   25  A    between atoms: _62  and  _63
REMARK   26  A    between atoms: _73  and  _75
REMARK   27  A    between atoms: _75  and  _76
REMARK   28  A    between atoms: _75  and  _78
REMARK   29  A    between atoms: _78  and  _79
REMARK   30  A    between atoms: _79  and  _80
REMARK   31  A    between atoms: _82  and  _84
REMARK   32  A    between atoms: _84  and  _85
REMARK   33  A    between atoms: _84  and  _87
REMARK   34  A    between atoms: _87  and  _88
REMARK   35  A    between atoms: _91  and  _93
REMARK   36  A    between atoms: _93  and  _94
REMARK   37  A    between atoms: _93  and  _96
REMARK   38  A    between atoms: _96  and  _97
REMARK   39  A    between atoms: _107  and  _109
REMARK   40  A    between atoms: _109  and  _110
REMARK   41  A    between atoms: _109  and  _112
REMARK   42  A    between atoms: _112  and  _113
REMARK   43  A    between atoms: _116  and  _118
REMARK   44  A    between atoms: _118  and  _119
REMARK   45  A    between atoms: _118  and  _121
REMARK   46  A    between atoms: _121  and  _122
REMARK   47  A    between atoms: _122  and  _123
REMARK   48  A    between atoms: _126  and  _128
REMARK   49  A    between atoms: _128  and  _129
REMARK   50  A    between atoms: _131  and  _133
REMARK   51  A    between atoms: _133  and  _134
REMARK   52  A    between atoms: _133  and  _136
REMARK   53  A    between atoms: _136  and  _137
REMARK   54  A    between atoms: _147  and  _149
REMARK   55  A    between atoms: _149  and  _150
REMARK   56  A    between atoms: _149  and  _152
REMARK   57  A    between atoms: _152  and  _153
REMARK   58  A    between atoms: _163  and  _165
REMARK   59  A    between atoms: _165  and  _166
REMARK   60  A    between atoms: _165  and  _168
REMARK   61  A    between atoms: _168  and  _169
REMARK   62  A    between atoms: _175  and  _177
REMARK   63  A    between atoms: _177  and  _178
REMARK   64  A    between atoms: _177  and  _180
REMARK   65  A    between atoms: _180  and  _181
REMARK   66  A    between atoms: _187  and  _189
REMARK   67  A    between atoms: _189  and  _190
REMARK   68  A    between atoms: _189  and  _192
REMARK   69  A    between atoms: _192  and  _193
REMARK   70  A    between atoms: _198  and  _200
REMARK   71  A    between atoms: _200  and  _201
REMARK   72  A    between atoms: _200  and  _203
REMARK   73  A    between atoms: _203  and  _204
REMARK   74  A    between atoms: _209  and  _211
REMARK   75  A    between atoms: _211  and  _212
REMARK   76  A    between atoms: _211  and  _214
REMARK   77  A    between atoms: _214  and  _215
REMARK   78  A    between atoms: _215  and  _216
REMARK   79  A    between atoms: _219  and  _221
REMARK   80  A    between atoms: _221  and  _222
REMARK   81  A    between atoms: _221  and  _224
REMARK   82  A    between atoms: _224  and  _225
REMARK   83  A    between atoms: _228  and  _230
REMARK   84  A    between atoms: _230  and  _231
REMARK   85  A    between atoms: _230  and  _233
REMARK   86  A    between atoms: _233  and  _234
REMARK   87  A    between atoms: _236  and  _238
REMARK   88  A    between atoms: _238  and  _239
REMARK   89  A    between atoms: _238  and  _241
REMARK   90  A    between atoms: _241  and  _242
REMARK   91  A    between atoms: _242  and  _243
REMARK   92  A    between atoms: _243  and  _244
REMARK   93  A    between atoms: _244  and  _245
REMARK   94  A    between atoms: _249  and  _251
REMARK   95  A    between atoms: _251  and  _252
REMARK   96  A    between atoms: _251  and  _254
REMARK   97  A    between atoms: _254  and  _255
REMARK   98  A    between atoms: _257  and  _259
REMARK   99  A    between atoms: _259  and  _260
REMARK  100  A    between atoms: _262  and  _264
REMARK  101  A    between atoms: _264  and  _265
REMARK  102  A    between atoms: _264  and  _267
REMARK  103  A    between atoms: _267  and  _268
REMARK  104  A    between atoms: _273  and  _274
REMARK  105  A    between atoms: _276  and  _278
REMARK  106  A    between atoms: _278  and  _279
REMARK  107  A    between atoms: _278  and  _281
REMARK  108  A    between atoms: _284  and  _286
REMARK  109  A    between atoms: _286  and  _287
REMARK  110  A    between atoms: _289  and  _291
REMARK  111  A    between atoms: _291  and  _292
REMARK  112  A    between atoms: _291  and  _294
REMARK  113  A    between atoms: _294  and  _295
REMARK  114  A    between atoms: _300  and  _302
REMARK  115  A    between atoms: _302  and  _303
REMARK  116  A    between atoms: _306  and  _308
REMARK  117  A    between atoms: _308  and  _309
REMARK  118  A    between atoms: _308  and  _311
REMARK  119  A    between atoms: _311  and  _312
REMARK  120  A    between atoms: _317  and  _319
REMARK  121  A    between atoms: _319  and  _320
REMARK  122  A    between atoms: _319  and  _322
REMARK  123  A    between atoms: _322  and  _323
REMARK  124  A    between atoms: _323  and  _324
REMARK  125  A    between atoms: _327  and  _329
REMARK  126  A    between atoms: _329  and  _330
REMARK  127  A    between atoms: _329  and  _332
REMARK  128  A    between atoms: _332  and  _333
REMARK  129  A    between atoms: _333  and  _334
REMARK  130  A    between atoms: _334  and  _335
REMARK  131  A    between atoms: _335  and  CA_419
REMARK  132  A    between atoms: _337  and  _339
REMARK  133  A    between atoms: _339  and  _340
REMARK  134  A    between atoms: _339  and  _342
REMARK  135  A    between atoms: _342  and  _343
REMARK  136  A    between atoms: _345  and  _347
REMARK  137  A    between atoms: _347  and  _348
REMARK  138  A    between atoms: _351  and  _353
REMARK  139  A    between atoms: _353  and  _354
REMARK  140  A    between atoms: _356  and  _358
REMARK  141  A    between atoms: _358  and  _359
REMARK  142  A    between atoms: _358  and  _361
REMARK  143  A    between atoms: _361  and  _362
REMARK  144  A    between atoms: _362  and  _363
REMARK  145  A    between atoms: _363  and  _365
REMARK  146  A    between atoms: _365  and  CA_419
REMARK  147  A    between atoms: _366  and  _368
REMARK  148  A    between atoms: _368  and  _369
REMARK  149  A    between atoms: _368  and  _371
REMARK  150  A    between atoms: _371  and  _372
REMARK  151  A    between atoms: _377  and  _378
REMARK  152  A    between atoms: _380  and  _382
REMARK  153  A    between atoms: _382  and  _383
REMARK  154  A    between atoms: _382  and  _385
REMARK  155  A    between atoms: _385  and  _386
REMARK  156  A    between atoms: _392  and  _394
REMARK  157  A    between atoms: _394  and  _395
REMARK  158  A    between atoms: _394  and  _397
REMARK  159  A    between atoms: _397  and  _398
REMARK  160  A    between atoms: _401  and  _403
REMARK  161  A    between atoms: _403  and  _404
REMARK  162  A    between atoms: _403  and  _406
REMARK  163  A    between atoms: _406  and  _407
REMARK  164  A    between atoms: _410  and  _412
REMARK  165  A    between atoms: _412  and  _413
REMARK  166  A    between atoms: _412  and  _415
REMARK  167  A    between atoms: _415  and  _416
REMARK  168  A    between atoms: _416  and  _417
REMARK                            x       y       z     vdW  Elec       q    Type
REMARK                         _______ _______ _______ _____ _____    ______ ____
ROOT
ATOM      1  CA  TRP A   1      25.737  43.566  59.794  0.00  0.00    +0.149 C 
ENDROOT
BRANCH   1   2
ATOM      2  C   TRP A   1      25.196  44.940  60.177  0.00  0.00    +0.239 C 
ATOM      3  O   TRP A   1      24.015  45.062  60.498  0.00  0.00    -0.274 OA
ATOM      4  N   PHE A   2      26.047  45.966  60.158  0.00  0.00    -0.298 N 
ATOM      5  H   PHE A   2      26.965  45.866  59.680  0.00  0.00    +0.150 HD
BRANCH   4   6
ATOM      6  CA  PHE A   2      25.703  47.220  60.799  0.00  0.00    +0.141 C 
BRANCH   6   7
ATOM      7  C   PHE A   2      25.559  48.421  59.885  0.00  0.00    +0.227 C 
ATOM      8  O   PHE A   2      26.487  48.794  59.120  0.00  0.00    -0.286 OA
ENDBRANCH   6   7
BRANCH   6   9
ATOM      9  CB  PHE A   2      26.705  47.540  61.914  0.00  0.00    +0.054 C 
BRANCH   9  10
ATOM     10  CG  PHE A   2      26.355  48.787  62.704  0.00  0.00    -0.020 A 
ATOM     11  CD2 PHE A   2      25.474  48.727  63.772  0.00  0.00    -0.004 A 
ATOM     12  CE2 PHE A   2      25.147  49.888  64.493  0.00  0.00    -0.000 A 
ATOM     13  CZ  PHE A   2      25.686  51.117  64.119  0.00  0.00    -0.000 A 
ATOM     14  CE1 PHE A   2      26.556  51.180  63.059  0.00  0.00    -0.000 A 
ATOM     15  CD1 PHE A   2      26.880  50.027  62.345  0.00  0.00    -0.004 A 
ENDBRANCH   9  10
ENDBRANCH   6   9
ENDBRANCH   4   6
ENDBRANCH   1   2
BRANCH   1  16
ATOM     16  N   TRP A   1      26.968  43.529  58.983  0.00  0.00    -0.238 NA
ATOM     17  H   TRP A   1      27.828  43.092  59.371  0.00  0.00    +0.142 HD
ENDBRANCH   1  16
BRANCH   1  18
ATOM     18  CB  TRP A   1      25.906  42.735  61.075  0.00  0.00    +0.054 C 
BRANCH  18  19
ATOM     19  CG  TRP A   1      26.634  43.442  62.183  0.00  0.00    -0.002 A 
ATOM     20  CD2 TRP A   1      26.042  44.124  63.285  0.00  0.00    +0.013 A 
ATOM     21  CE2 TRP A   1      27.093  44.621  64.090  0.00  0.00    +0.056 A 
ATOM     22  CZ2 TRP A   1      26.860  45.328  65.255  0.00  0.00    +0.017 A 
ATOM     23  CH2 TRP A   1      25.550  45.551  65.612  0.00  0.00    +0.001 A 
ATOM     24  CZ3 TRP A   1      24.486  45.090  64.822  0.00  0.00    +0.000 A 
ATOM     25  NE1 TRP A   1      28.278  44.266  63.495  0.00  0.00    -0.352 N 
ATOM     26  HE1 TRP A   1      29.229  44.492  63.851  0.00  0.00    +0.166 HD
ATOM     27  CE3 TRP A   1      24.714  44.349  63.687  0.00  0.00    +0.001 A 
ATOM     28  CD1 TRP A   1      27.993  43.556  62.341  0.00  0.00    +0.068 A 
ENDBRANCH  18  19
ENDBRANCH   1  18
TORSDOF 8
REMARK  Name = ../refined-set-2016/2jkp/2jkp_pocket.pdb
REMARK  168 active torsions:
REMARK  status: ('A' for Active; 'I' for Inactive)
REMARK    1  A    between atoms: _1  and  _3
REMARK    2  A    between atoms: _3  and  _4
REMARK    3  A    between atoms: _3  and  _6
REMARK    4  A    between atoms: _6  and  _7
REMARK    5  A    between atoms: _7  and  _8
REMARK    6  A    between atoms: _11  and  _13
REMARK    7  A    between atoms: _13  and  _14
REMARK    8  A    between atoms: _13  and  _16
REMARK    9  A    between atoms: _16  and  _17
REMARK   10  A    between atoms: _19  and  _21
REMARK   11  A    between atoms: _21  and  _22
REMARK   12  A    between atoms: _21  and  _24
REMARK   13  A    between atoms: _24  and  _25
REMARK   14  A    between atoms: _30  and  _31
REMARK   15  A    between atoms: _33  and  _35
REMARK   16  A    between atoms: _35  and  _36
REMARK   17  A    between atoms: _35  and  _38
REMARK   18  A    between atoms: _41  and  _43
REMARK   19  A    between atoms: _43  and  _44
REMARK   20  A    between atoms: _43  and  _46
REMARK   21  A    between atoms: _46  and  _47
REMARK   22  A    between atoms: _57  and  _59
REMARK   23  A    between atoms: _59  and  _60
REMARK   24  A    between atoms: _59  and  _62
REMARK   25  A    between atoms: _62  and  _63
REMARK   26  A    between atoms: _73  and  _75
REMARK   27  A    between atoms: _75  and  _76
REMARK   28  A    between atoms: _75  and  _78
REMARK   29  A    between atoms: _78  and  _79
REMARK   30  A    between atoms: _79  and  _80
REMARK   31  A    between atoms: _82  and  _84
REMARK   32  A    between atoms: _84  and  _85
REMARK   33  A    between atoms: _84  and  _87
REMARK   34  A    between atoms: _87  and  _88
REMARK   35  A    between atoms: _91  and  _93
REMARK   36  A    between atoms: _93  and  _94
REMARK   37  A    between atoms: _93  and  _96
REMARK   38  A    between atoms: _96  and  _97
REMARK   39  A    between atoms: _107  and  _109
REMARK   40  A    between atoms: _109  and  _110
REMARK   41  A    between atoms: _109  and  _112
REMARK   42  A    between atoms: _112  and  _113
REMARK   43  A    between atoms: _116  and  _118
REMARK   44  A    between atoms: _118  and  _119
REMARK   45  A    between atoms: _118  and  _121
REMARK   46  A    between atoms: _121  and  _122
REMARK   47  A    between atoms: _122  and  _123
REMARK   48  A    between atoms: _126  and  _128
REMARK   49  A    between atoms: _128  and  _129
REMARK   50  A    between atoms: _131  and  _133
REMARK   51  A    between atoms: _133  and  _134
REMARK   52  A    between atoms: _133  and  _136
REMARK   53  A    between atoms: _136  and  _137
REMARK   54  A    between atoms: _147  and  _149
REMARK   55  A    between atoms: _149  and  _150
REMARK   56  A    between atoms: _149  and  _152
REMARK   57  A    between atoms: _152  and  _153
REMARK   58  A    between atoms: _163  and  _165
REMARK   59  A    between atoms: _165  and  _166
REMARK   60  A    between atoms: _165  and  _168
REMARK   61  A    between atoms: _168  and  _169
REMARK   62  A    between atoms: _175  and  _177
REMARK   63  A    between atoms: _177  and  _178
REMARK   64  A    between atoms: _177  and  _180
REMARK   65  A    between atoms: _180  and  _181
REMARK   66  A    between atoms: _187  and  _189
REMARK   67  A    between atoms: _189  and  _190
REMARK   68  A    between atoms: _189  and  _192
REMARK   69  A    between atoms: _192  and  _193
REMARK   70  A    between atoms: _198  and  _200
REMARK   71  A    between atoms: _200  and  _201
REMARK   72  A    between atoms: _200  and  _203
REMARK   73  A    between atoms: _203  and  _204
REMARK   74  A    between atoms: _209  and  _211
REMARK   75  A    between atoms: _211  and  _212
REMARK   76  A    between atoms: _211  and  _214
REMARK   77  A    between atoms: _214  and  _215
REMARK   78  A    between atoms: _215  and  _216
REMARK   79  A    between atoms: _219  and  _221
REMARK   80  A    between atoms: _221  and  _222
REMARK   81  A    between atoms: _221  and  _224
REMARK   82  A    between atoms: _224  and  _225
REMARK   83  A    between atoms: _228  and  _230
REMARK   84  A    between atoms: _230  and  _231
REMARK   85  A    between atoms: _230  and  _233
REMARK   86  A    between atoms: _233  and  _234
REMARK   87  A    between atoms: _236  and  _238
REMARK   88  A    between atoms: _238  and  _239
REMARK   89  A    between atoms: _238  and  _241
REMARK   90  A    between atoms: _241  and  _242
REMARK   91  A    between atoms: _242  and  _243
REMARK   92  A    between atoms: _243  and  _244
REMARK   93  A    between atoms: _244  and  _245
REMARK   94  A    between atoms: _249  and  _251
REMARK   95  A    between atoms: _251  and  _252
REMARK   96  A    between atoms: _251  and  _254
REMARK   97  A    between atoms: _254  and  _255
REMARK   98  A    between atoms: _257  and  _259
REMARK   99  A    between atoms: _259  and  _260
REMARK  100  A    between atoms: _262  and  _264
REMARK  101  A    between atoms: _264  and  _265
REMARK  102  A    between atoms: _264  and  _267
REMARK  103  A    between atoms: _267  and  _268
REMARK  104  A    between atoms: _273  and  _274
REMARK  105  A    between atoms: _276  and  _278
REMARK  106  A    between atoms: _278  and  _279
REMARK  107  A    between atoms: _278  and  _281
REMARK  108  A    between atoms: _284  and  _286
REMARK  109  A    between atoms: _286  and  _287
REMARK  110  A    between atoms: _289  and  _291
REMARK  111  A    between atoms: _291  and  _292
REMARK  112  A    between atoms: _291  and  _294
REMARK  113  A    between atoms: _294  and  _295
REMARK  114  A    between atoms: _300  and  _302
REMARK  115  A    between atoms: _302  and  _303
REMARK  116  A    between atoms: _306  and  _308
REMARK  117  A    between atoms: _308  and  _309
REMARK  118  A    between atoms: _308  and  _311
REMARK  119  A    between atoms: _311  and  _312
REMARK  120  A    between atoms: _317  and  _319
REMARK  121  A    between atoms: _319  and  _320
REMARK  122  A    between atoms: _319  and  _322
REMARK  123  A    between atoms: _322  and  _323
REMARK  124  A    between atoms: _323  and  _324
REMARK  125  A    between atoms: _327  and  _329
REMARK  126  A    between atoms: _329  and  _330
REMARK  127  A    between atoms: _329  and  _332
REMARK  128  A    between atoms: _332  and  _333
REMARK  129  A    between atoms: _333  and  _334
REMARK  130  A    between atoms: _334  and  _335
REMARK  131  A    between atoms: _335  and  CA_419
REMARK  132  A    between atoms: _337  and  _339
REMARK  133  A    between atoms: _339  and  _340
REMARK  134  A    between atoms: _339  and  _342
REMARK  135  A    between atoms: _342  and  _343
REMARK  136  A    between atoms: _345  and  _347
REMARK  137  A    between atoms: _347  and  _348
REMARK  138  A    between atoms: _351  and  _353
REMARK  139  A    between atoms: _353  and  _354
REMARK  140  A    between atoms: _356  and  _358
REMARK  141  A    between atoms: _358  and  _359
REMARK  142  A    between atoms: _358  and  _361
REMARK  143  A    between atoms: _361  and  _362
REMARK  144  A    between atoms: _362  and  _363
REMARK  145  A    between atoms: _363  and  _365
REMARK  146  A    between atoms: _365  and  CA_419
REMARK  147  A    between atoms: _366  and  _368
REMARK  148  A    between atoms: _368  and  _369
REMARK  149  A    between atoms: _368  and  _371
REMARK  150  A    between atoms: _371  and  _372
REMARK  151  A    between atoms: _377  and  _378
REMARK  152  A    between atoms: _380  and  _382
REMARK  153  A    between atoms: _382  and  _383
REMARK  154  A    between atoms: _382  and  _385
REMARK  155  A    between atoms: _385  and  _386
REMARK  156  A    between atoms: _392  and  _394
REMARK  157  A    between atoms: _394  and  _395
REMARK  158  A    between atoms: _394  and  _397
REMARK  159  A    between atoms: _397  and  _398
REMARK  160  A    between atoms: _401  and  _403
REMARK  161  A    between atoms: _403  and  _404
REMARK  162  A    between atoms: _403  and  _406
REMARK  163  A    between atoms: _406  and  _407
REMARK  164  A    between atoms: _410  and  _412
REMARK  165  A    between atoms: _412  and  _413
REMARK  166  A    between atoms: _412  and  _415
REMARK  167  A    between atoms: _415  and  _416
REMARK  168  A    between atoms: _416  and  _417
REMARK                            x       y       z     vdW  Elec       q    Type
REMARK                         _______ _______ _______ _____ _____    ______ ____
ROOT
ATOM      1  CB  PHE A   1      21.911  36.771  57.985  0.00  0.00    +0.051 C 
ENDROOT
BRANCH   1   2
ATOM      2  CG  PHE A   1      22.762  37.714  58.778  0.00  0.00    -0.020 A 
ATOM      3  CD2 PHE A   1      22.195  38.827  59.385  0.00  0.00    -0.004 A 
ATOM      4  CE2 PHE A   1      22.972  39.691  60.149  0.00  0.00    -0.000 A 
ATOM      5  CZ  PHE A   1      24.340  39.425  60.321  0.00  0.00    -0.000 A 
ATOM      6  CE1 PHE A   1      24.904  38.313  59.719  0.00  0.00    -0.000 A 
ATOM      7  CD1 PHE A   1      24.113  37.460  58.963  0.00  0.00    -0.004 A 
ENDBRANCH   1   2
BRANCH   1   8
ATOM      8  CA  PHE A   1      22.173  36.800  56.484  0.00  0.00    +0.137 C 
BRANCH   8   9
ATOM      9  N   PHE A   1      21.809  38.119  55.917  0.00  0.00    -0.239 NA
ATOM     10  H   PHE A   1      20.812  38.321  55.701  0.00  0.00    +0.142 HD
ENDBRANCH   8   9
BRANCH   8  11
ATOM     11  C   PHE A   1      21.293  35.724  55.872  0.00  0.00    +0.224 C 
ATOM     12  O   PHE A   1      20.229  36.035  55.328  0.00  0.00    -0.287 OA
ENDBRANCH   8  11
ENDBRANCH   1   8
TORSDOF 4
REMARK  Name = ../refined-set-2016/2jkp/2jkp_pocket.pdb
REMARK  168 active torsions:
REMARK  status: ('A' for Active; 'I' for Inactive)
REMARK    1  A    between atoms: _1  and  _3
REMARK    2  A    between atoms: _3  and  _4
REMARK    3  A    between atoms: _3  and  _6
REMARK    4  A    between atoms: _6  and  _7
REMARK    5  A    between atoms: _7  and  _8
REMARK    6  A    between atoms: _11  and  _13
REMARK    7  A    between atoms: _13  and  _14
REMARK    8  A    between atoms: _13  and  _16
REMARK    9  A    between atoms: _16  and  _17
REMARK   10  A    between atoms: _19  and  _21
REMARK   11  A    between atoms: _21  and  _22
REMARK   12  A    between atoms: _21  and  _24
REMARK   13  A    between atoms: _24  and  _25
REMARK   14  A    between atoms: _30  and  _31
REMARK   15  A    between atoms: _33  and  _35
REMARK   16  A    between atoms: _35  and  _36
REMARK   17  A    between atoms: _35  and  _38
REMARK   18  A    between atoms: _41  and  _43
REMARK   19  A    between atoms: _43  and  _44
REMARK   20  A    between atoms: _43  and  _46
REMARK   21  A    between atoms: _46  and  _47
REMARK   22  A    between atoms: _57  and  _59
REMARK   23  A    between atoms: _59  and  _60
REMARK   24  A    between atoms: _59  and  _62
REMARK   25  A    between atoms: _62  and  _63
REMARK   26  A    between atoms: _73  and  _75
REMARK   27  A    between atoms: _75  and  _76
REMARK   28  A    between atoms: _75  and  _78
REMARK   29  A    between atoms: _78  and  _79
REMARK   30  A    between atoms: _79  and  _80
REMARK   31  A    between atoms: _82  and  _84
REMARK   32  A    between atoms: _84  and  _85
REMARK   33  A    between atoms: _84  and  _87
REMARK   34  A    between atoms: _87  and  _88
REMARK   35  A    between atoms: _91  and  _93
REMARK   36  A    between atoms: _93  and  _94
REMARK   37  A    between atoms: _93  and  _96
REMARK   38  A    between atoms: _96  and  _97
REMARK   39  A    between atoms: _107  and  _109
REMARK   40  A    between atoms: _109  and  _110
REMARK   41  A    between atoms: _109  and  _112
REMARK   42  A    between atoms: _112  and  _113
REMARK   43  A    between atoms: _116  and  _118
REMARK   44  A    between atoms: _118  and  _119
REMARK   45  A    between atoms: _118  and  _121
REMARK   46  A    between atoms: _121  and  _122
REMARK   47  A    between atoms: _122  and  _123
REMARK   48  A    between atoms: _126  and  _128
REMARK   49  A    between atoms: _128  and  _129
REMARK   50  A    between atoms: _131  and  _133
REMARK   51  A    between atoms: _133  and  _134
REMARK   52  A    between atoms: _133  and  _136
REMARK   53  A    between atoms: _136  and  _137
REMARK   54  A    between atoms: _147  and  _149
REMARK   55  A    between atoms: _149  and  _150
REMARK   56  A    between atoms: _149  and  _152
REMARK   57  A    between atoms: _152  and  _153
REMARK   58  A    between atoms: _163  and  _165
REMARK   59  A    between atoms: _165  and  _166
REMARK   60  A    between atoms: _165  and  _168
REMARK   61  A    between atoms: _168  and  _169
REMARK   62  A    between atoms: _175  and  _177
REMARK   63  A    between atoms: _177  and  _178
REMARK   64  A    between atoms: _177  and  _180
REMARK   65  A    between atoms: _180  and  _181
REMARK   66  A    between atoms: _187  and  _189
REMARK   67  A    between atoms: _189  and  _190
REMARK   68  A    between atoms: _189  and  _192
REMARK   69  A    between atoms: _192  and  _193
REMARK   70  A    between atoms: _198  and  _200
REMARK   71  A    between atoms: _200  and  _201
REMARK   72  A    between atoms: _200  and  _203
REMARK   73  A    between atoms: _203  and  _204
REMARK   74  A    between atoms: _209  and  _211
REMARK   75  A    between atoms: _211  and  _212
REMARK   76  A    between atoms: _211  and  _214
REMARK   77  A    between atoms: _214  and  _215
REMARK   78  A    between atoms: _215  and  _216
REMARK   79  A    between atoms: _219  and  _221
REMARK   80  A    between atoms: _221  and  _222
REMARK   81  A    between atoms: _221  and  _224
REMARK   82  A    between atoms: _224  and  _225
REMARK   83  A    between atoms: _228  and  _230
REMARK   84  A    between atoms: _230  and  _231
REMARK   85  A    between atoms: _230  and  _233
REMARK   86  A    between atoms: _233  and  _234
REMARK   87  A    between atoms: _236  and  _238
REMARK   88  A    between atoms: _238  and  _239
REMARK   89  A    between atoms: _238  and  _241
REMARK   90  A    between atoms: _241  and  _242
REMARK   91  A    between atoms: _242  and  _243
REMARK   92  A    between atoms: _243  and  _244
REMARK   93  A    between atoms: _244  and  _245
REMARK   94  A    between atoms: _249  and  _251
REMARK   95  A    between atoms: _251  and  _252
REMARK   96  A    between atoms: _251  and  _254
REMARK   97  A    between atoms: _254  and  _255
REMARK   98  A    between atoms: _257  and  _259
REMARK   99  A    between atoms: _259  and  _260
REMARK  100  A    between atoms: _262  and  _264
REMARK  101  A    between atoms: _264  and  _265
REMARK  102  A    between atoms: _264  and  _267
REMARK  103  A    between atoms: _267  and  _268
REMARK  104  A    between atoms: _273  and  _274
REMARK  105  A    between atoms: _276  and  _278
REMARK  106  A    between atoms: _278  and  _279
REMARK  107  A    between atoms: _278  and  _281
REMARK  108  A    between atoms: _284  and  _286
REMARK  109  A    between atoms: _286  and  _287
REMARK  110  A    between atoms: _289  and  _291
REMARK  111  A    between atoms: _291  and  _292
REMARK  112  A    between atoms: _291  and  _294
REMARK  113  A    between atoms: _294  and  _295
REMARK  114  A    between atoms: _300  and  _302
REMARK  115  A    between atoms: _302  and  _303
REMARK  116  A    between atoms: _306  and  _308
REMARK  117  A    between atoms: _308  and  _309
REMARK  118  A    between atoms: _308  and  _311
REMARK  119  A    between atoms: _311  and  _312
REMARK  120  A    between atoms: _317  and  _319
REMARK  121  A    between atoms: _319  and  _320
REMARK  122  A    between atoms: _319  and  _322
REMARK  123  A    between atoms: _322  and  _323
REMARK  124  A    between atoms: _323  and  _324
REMARK  125  A    between atoms: _327  and  _329
REMARK  126  A    between atoms: _329  and  _330
REMARK  127  A    between atoms: _329  and  _332
REMARK  128  A    between atoms: _332  and  _333
REMARK  129  A    between atoms: _333  and  _334
REMARK  130  A    between atoms: _334  and  _335
REMARK  131  A    between atoms: _335  and  CA_419
REMARK  132  A    between atoms: _337  and  _339
REMARK  133  A    between atoms: _339  and  _340
REMARK  134  A    between atoms: _339  and  _342
REMARK  135  A    between atoms: _342  and  _343
REMARK  136  A    between atoms: _345  and  _347
REMARK  137  A    between atoms: _347  and  _348
REMARK  138  A    between atoms: _351  and  _353
REMARK  139  A    between atoms: _353  and  _354
REMARK  140  A    between atoms: _356  and  _358
REMARK  141  A    between atoms: _358  and  _359
REMARK  142  A    between atoms: _358  and  _361
REMARK  143  A    between atoms: _361  and  _362
REMARK  144  A    between atoms: _362  and  _363
REMARK  145  A    between atoms: _363  and  _365
REMARK  146  A    between atoms: _365  and  CA_419
REMARK  147  A    between atoms: _366  and  _368
REMARK  148  A    between atoms: _368  and  _369
REMARK  149  A    between atoms: _368  and  _371
REMARK  150  A    between atoms: _371  and  _372
REMARK  151  A    between atoms: _377  and  _378
REMARK  152  A    between atoms: _380  and  _382
REMARK  153  A    between atoms: _382  and  _383
REMARK  154  A    between atoms: _382  and  _385
REMARK  155  A    between atoms: _385  and  _386
REMARK  156  A    between atoms: _392  and  _394
REMARK  157  A    between atoms: _394  and  _395
REMARK  158  A    between atoms: _394  and  _397
REMARK  159  A    between atoms: _397  and  _398
REMARK  160  A    between atoms: _401  and  _403
REMARK  161  A    between atoms: _403  and  _404
REMARK  162  A    between atoms: _403  and  _406
REMARK  163  A    between atoms: _406  and  _407
REMARK  164  A    between atoms: _410  and  _412
REMARK  165  A    between atoms: _412  and  _413
REMARK  166  A    between atoms: _412  and  _415
REMARK  167  A    between atoms: _415  and  _416
REMARK  168  A    between atoms: _416  and  _417
REMARK                            x       y       z     vdW  Elec       q    Type
REMARK                         _______ _______ _______ _____ _____    ______ ____
ROOT
ATOM      1  CA  GLU A   3      20.502  38.770  64.308  0.00  0.00    +0.149 C 
ENDROOT
BRANCH   1   2
ATOM      2  C   GLU A   3      19.993  38.967  62.887  0.00  0.00    +0.241 C 
ATOM      3  N   THR A   4      18.995  39.832  62.712  0.00  0.00    -0.295 N 
ATOM      4  H   THR A   4      18.598  40.328  63.536  0.00  0.00    +0.150 HD
ATOM      5  O   GLU A   3      20.528  38.365  61.943  0.00  0.00    -0.273 OA
BRANCH   3   6
ATOM      6  CA  THR A   4      18.444  40.098  61.373  0.00  0.00    +0.176 C 
BRANCH   6   7
ATOM      7  C   THR A   4      18.946  41.378  60.789  0.00  0.00    +0.243 C 
ATOM      8  N   SER A   5      19.620  42.186  61.604  0.00  0.00    -0.296 N 
ATOM      9  H   SER A   5      19.829  41.878  62.575  0.00  0.00    +0.150 HD
ATOM     10  O   THR A   4      18.699  41.650  59.623  0.00  0.00    -0.273 OA
BRANCH   8  11
ATOM     11  CA  SER A   5      20.069  43.498  61.151  0.00  0.00    +0.166 C 
BRANCH  11  12
ATOM     12  CB  SER A   5      18.908  44.289  60.587  0.00  0.00    +0.229 C 
ATOM     13  OG  SER A   5      19.062  45.112  59.677  0.00  0.00    -0.286 OA
ENDBRANCH  11  12
BRANCH  11  14
ATOM     14  C   SER A   5      21.190  43.363  60.119  0.00  0.00    +0.165 C 
BRANCH  14  15
ATOM     15  O   SER A   5      22.358  42.926  60.750  0.00  0.00    -0.380 OA
ATOM     16  H   SER A   5      22.624  43.583  61.441  0.00  0.00    +0.211 HD
ENDBRANCH  14  15
ENDBRANCH  11  14
ENDBRANCH   8  11
ENDBRANCH   6   7
BRANCH   6  17
ATOM     17  CB  THR A   4      16.888  40.208  61.370  0.00  0.00    +0.137 C 
ATOM     18  CG2 THR A   4      16.290  38.999  62.046  0.00  0.00    +0.034 C 
BRANCH  17  19
ATOM     19  OG1 THR A   4      16.449  41.393  62.071  0.00  0.00    -0.382 OA
ATOM     20  HG1 THR A   4      16.763  41.355  63.009  0.00  0.00    +0.210 HD
ENDBRANCH  17  19
ENDBRANCH   6  17
ENDBRANCH   3   6
ENDBRANCH   1   2
BRANCH   1  23
ATOM     21  C   HIS A   2      19.364  36.680  64.605  0.00  0.00    +0.241 C 
ATOM     22  O   HIS A   2      18.300  37.296  64.616  0.00  0.00    -0.273 OA
ATOM     23  N   GLU A   3      20.523  37.330  64.596  0.00  0.00    -0.297 N 
ATOM     24  H   GLU A   3      21.417  36.834  64.787  0.00  0.00    +0.150 HD
BRANCH  21  25
ATOM     25  CA  HIS A   2      19.364  35.152  64.630  0.00  0.00    +0.155 C 
BRANCH  25  27
ATOM     26  C   HIS A   1      20.993  33.851  65.943  0.00  0.00    +0.239 C 
ATOM     27  N   HIS A   2      19.883  34.580  65.888  0.00  0.00    -0.297 N 
ATOM     28  H   HIS A   2      19.358  34.755  66.769  0.00  0.00    +0.150 HD
ATOM     29  O   HIS A   1      21.624  33.531  64.925  0.00  0.00    -0.274 OA
BRANCH  26  30
ATOM     30  CA  HIS A   1      21.487  33.436  67.365  0.00  0.00    +0.151 C 
BRANCH  30  31
ATOM     31  N   HIS A   1      21.539  31.984  67.568  0.00  0.00    -0.238 NA
ATOM     32  H   HIS A   1      22.209  31.429  66.998  0.00  0.00    +0.142 HD
ENDBRANCH  30  31
BRANCH  30  33
ATOM     33  CB  HIS A   1      22.869  34.055  67.627  0.00  0.00    +0.074 C 
BRANCH  33  34
ATOM     34  CG  HIS A   1      22.833  35.537  67.720  0.00  0.00    +0.082 A 
ATOM     35  CD2 HIS A   1      21.939  36.366  68.316  0.00  0.00    +0.115 A 
ATOM     36  NE2 HIS A   1      22.330  37.653  68.040  0.00  0.00    -0.221 NA
ATOM     37  CE1 HIS A   1      23.450  37.615  67.332  0.00  0.00    +0.199 A 
ATOM     38  ND1 HIS A   1      23.764  36.349  67.104  0.00  0.00    -0.227 NA
ENDBRANCH  33  34
ENDBRANCH  30  33
ENDBRANCH  26  30
ENDBRANCH  25  27
BRANCH  25  39
ATOM     39  CB  HIS A   2      17.941  34.639  64.344  0.00  0.00    +0.076 C 
BRANCH  39  40
ATOM     40  CG  HIS A   2      17.901  33.199  63.942  0.00  0.00    +0.082 A 
ATOM     41  ND1 HIS A   2      16.731  32.473  63.849  0.00  0.00    -0.227 NA
ATOM     42  CE1 HIS A   2      17.019  31.237  63.479  0.00  0.00    +0.199 A 
ATOM     43  NE2 HIS A   2      18.331  31.127  63.353  0.00  0.00    -0.221 NA
ATOM     44  CD2 HIS A   2      18.905  32.349  63.618  0.00  0.00    +0.115 A 
ENDBRANCH  39  40
ENDBRANCH  25  39
ENDBRANCH  21  25
ENDBRANCH   1  23
BRANCH   1  45
ATOM     45  CB  GLU A   3      21.873  39.397  64.452  0.00  0.00    +0.041 C 
BRANCH  45  46
ATOM     46  CG  GLU A   3      21.988  40.834  64.005  0.00  0.00    +0.116 C 
BRANCH  46  47
ATOM     47  CD  GLU A   3      21.102  41.779  64.845  0.00  0.00    +0.365 C 
ATOM     48  OE2 GLU A   3      21.264  41.807  66.096  0.00  0.00    -0.246 OA
ATOM     49  OE1 GLU A   3      20.239  42.460  64.247  0.00  0.00    -0.246 OA
ENDBRANCH  46  47
ENDBRANCH  45  46
ENDBRANCH   1  45
TORSDOF 21
REMARK  Name = ../refined-set-2016/2jkp/2jkp_pocket.pdb
REMARK  168 active torsions:
REMARK  status: ('A' for Active; 'I' for Inactive)
REMARK    1  A    between atoms: _1  and  _3
REMARK    2  A    between atoms: _3  and  _4
REMARK    3  A    between atoms: _3  and  _6
REMARK    4  A    between atoms: _6  and  _7
REMARK    5  A    between atoms: _7  and  _8
REMARK    6  A    between atoms: _11  and  _13
REMARK    7  A    between atoms: _13  and  _14
REMARK    8  A    between atoms: _13  and  _16
REMARK    9  A    between atoms: _16  and  _17
REMARK   10  A    between atoms: _19  and  _21
REMARK   11  A    between atoms: _21  and  _22
REMARK   12  A    between atoms: _21  and  _24
REMARK   13  A    between atoms: _24  and  _25
REMARK   14  A    between atoms: _30  and  _31
REMARK   15  A    between atoms: _33  and  _35
REMARK   16  A    between atoms: _35  and  _36
REMARK   17  A    between atoms: _35  and  _38
REMARK   18  A    between atoms: _41  and  _43
REMARK   19  A    between atoms: _43  and  _44
REMARK   20  A    between atoms: _43  and  _46
REMARK   21  A    between atoms: _46  and  _47
REMARK   22  A    between atoms: _57  and  _59
REMARK   23  A    between atoms: _59  and  _60
REMARK   24  A    between atoms: _59  and  _62
REMARK   25  A    between atoms: _62  and  _63
REMARK   26  A    between atoms: _73  and  _75
REMARK   27  A    between atoms: _75  and  _76
REMARK   28  A    between atoms: _75  and  _78
REMARK   29  A    between atoms: _78  and  _79
REMARK   30  A    between atoms: _79  and  _80
REMARK   31  A    between atoms: _82  and  _84
REMARK   32  A    between atoms: _84  and  _85
REMARK   33  A    between atoms: _84  and  _87
REMARK   34  A    between atoms: _87  and  _88
REMARK   35  A    between atoms: _91  and  _93
REMARK   36  A    between atoms: _93  and  _94
REMARK   37  A    between atoms: _93  and  _96
REMARK   38  A    between atoms: _96  and  _97
REMARK   39  A    between atoms: _107  and  _109
REMARK   40  A    between atoms: _109  and  _110
REMARK   41  A    between atoms: _109  and  _112
REMARK   42  A    between atoms: _112  and  _113
REMARK   43  A    between atoms: _116  and  _118
REMARK   44  A    between atoms: _118  and  _119
REMARK   45  A    between atoms: _118  and  _121
REMARK   46  A    between atoms: _121  and  _122
REMARK   47  A    between atoms: _122  and  _123
REMARK   48  A    between atoms: _126  and  _128
REMARK   49  A    between atoms: _128  and  _129
REMARK   50  A    between atoms: _131  and  _133
REMARK   51  A    between atoms: _133  and  _134
REMARK   52  A    between atoms: _133  and  _136
REMARK   53  A    between atoms: _136  and  _137
REMARK   54  A    between atoms: _147  and  _149
REMARK   55  A    between atoms: _149  and  _150
REMARK   56  A    between atoms: _149  and  _152
REMARK   57  A    between atoms: _152  and  _153
REMARK   58  A    between atoms: _163  and  _165
REMARK   59  A    between atoms: _165  and  _166
REMARK   60  A    between atoms: _165  and  _168
REMARK   61  A    between atoms: _168  and  _169
REMARK   62  A    between atoms: _175  and  _177
REMARK   63  A    between atoms: _177  and  _178
REMARK   64  A    between atoms: _177  and  _180
REMARK   65  A    between atoms: _180  and  _181
REMARK   66  A    between atoms: _187  and  _189
REMARK   67  A    between atoms: _189  and  _190
REMARK   68  A    between atoms: _189  and  _192
REMARK   69  A    between atoms: _192  and  _193
REMARK   70  A    between atoms: _198  and  _200
REMARK   71  A    between atoms: _200  and  _201
REMARK   72  A    between atoms: _200  and  _203
REMARK   73  A    between atoms: _203  and  _204
REMARK   74  A    between atoms: _209  and  _211
REMARK   75  A    between atoms: _211  and  _212
REMARK   76  A    between atoms: _211  and  _214
REMARK   77  A    between atoms: _214  and  _215
REMARK   78  A    between atoms: _215  and  _216
REMARK   79  A    between atoms: _219  and  _221
REMARK   80  A    between atoms: _221  and  _222
REMARK   81  A    between atoms: _221  and  _224
REMARK   82  A    between atoms: _224  and  _225
REMARK   83  A    between atoms: _228  and  _230
REMARK   84  A    between atoms: _230  and  _231
REMARK   85  A    between atoms: _230  and  _233
REMARK   86  A    between atoms: _233  and  _234
REMARK   87  A    between atoms: _236  and  _238
REMARK   88  A    between atoms: _238  and  _239
REMARK   89  A    between atoms: _238  and  _241
REMARK   90  A    between atoms: _241  and  _242
REMARK   91  A    between atoms: _242  and  _243
REMARK   92  A    between atoms: _243  and  _244
REMARK   93  A    between atoms: _244  and  _245
REMARK   94  A    between atoms: _249  and  _251
REMARK   95  A    between atoms: _251  and  _252
REMARK   96  A    between atoms: _251  and  _254
REMARK   97  A    between atoms: _254  and  _255
REMARK   98  A    between atoms: _257  and  _259
REMARK   99  A    between atoms: _259  and  _260
REMARK  100  A    between atoms: _262  and  _264
REMARK  101  A    between atoms: _264  and  _265
REMARK  102  A    between atoms: _264  and  _267
REMARK  103  A    between atoms: _267  and  _268
REMARK  104  A    between atoms: _273  and  _274
REMARK  105  A    between atoms: _276  and  _278
REMARK  106  A    between atoms: _278  and  _279
REMARK  107  A    between atoms: _278  and  _281
REMARK  108  A    between atoms: _284  and  _286
REMARK  109  A    between atoms: _286  and  _287
REMARK  110  A    between atoms: _289  and  _291
REMARK  111  A    between atoms: _291  and  _292
REMARK  112  A    between atoms: _291  and  _294
REMARK  113  A    between atoms: _294  and  _295
REMARK  114  A    between atoms: _300  and  _302
REMARK  115  A    between atoms: _302  and  _303
REMARK  116  A    between atoms: _306  and  _308
REMARK  117  A    between atoms: _308  and  _309
REMARK  118  A    between atoms: _308  and  _311
REMARK  119  A    between atoms: _311  and  _312
REMARK  120  A    between atoms: _317  and  _319
REMARK  121  A    between atoms: _319  and  _320
REMARK  122  A    between atoms: _319  and  _322
REMARK  123  A    between atoms: _322  and  _323
REMARK  124  A    between atoms: _323  and  _324
REMARK  125  A    between atoms: _327  and  _329
REMARK  126  A    between atoms: _329  and  _330
REMARK  127  A    between atoms: _329  and  _332
REMARK  128  A    between atoms: _332  and  _333
REMARK  129  A    between atoms: _333  and  _334
REMARK  130  A    between atoms: _334  and  _335
REMARK  131  A    between atoms: _335  and  CA_419
REMARK  132  A    between atoms: _337  and  _339
REMARK  133  A    between atoms: _339  and  _340
REMARK  134  A    between atoms: _339  and  _342
REMARK  135  A    between atoms: _342  and  _343
REMARK  136  A    between atoms: _345  and  _347
REMARK  137  A    between atoms: _347  and  _348
REMARK  138  A    between atoms: _351  and  _353
REMARK  139  A    between atoms: _353  and  _354
REMARK  140  A    between atoms: _356  and  _358
REMARK  141  A    between atoms: _358  and  _359
REMARK  142  A    between atoms: _358  and  _361
REMARK  143  A    between atoms: _361  and  _362
REMARK  144  A    between atoms: _362  and  _363
REMARK  145  A    between atoms: _363  and  _365
REMARK  146  A    between atoms: _365  and  CA_419
REMARK  147  A    between atoms: _366  and  _368
REMARK  148  A    between atoms: _368  and  _369
REMARK  149  A    between atoms: _368  and  _371
REMARK  150  A    between atoms: _371  and  _372
REMARK  151  A    between atoms: _377  and  _378
REMARK  152  A    between atoms: _380  and  _382
REMARK  153  A    between atoms: _382  and  _383
REMARK  154  A    between atoms: _382  and  _385
REMARK  155  A    between atoms: _385  and  _386
REMARK  156  A    between atoms: _392  and  _394
REMARK  157  A    between atoms: _394  and  _395
REMARK  158  A    between atoms: _394  and  _397
REMARK  159  A    between atoms: _397  and  _398
REMARK  160  A    between atoms: _401  and  _403
REMARK  161  A    between atoms: _403  and  _404
REMARK  162  A    between atoms: _403  and  _406
REMARK  163  A    between atoms: _406  and  _407
REMARK  164  A    between atoms: _410  and  _412
REMARK  165  A    between atoms: _412  and  _413
REMARK  166  A    between atoms: _412  and  _415
REMARK  167  A    between atoms: _415  and  _416
REMARK  168  A    between atoms: _416  and  _417
REMARK                            x       y       z     vdW  Elec       q    Type
REMARK                         _______ _______ _______ _____ _____    ______ ____
ROOT
ATOM      1  C   GLY A   3      17.201  41.551  65.821  0.00  0.00    +0.243 C 
ATOM      2  N   TYR A   4      17.143  42.867  65.945  0.00  0.00    -0.297 N 
ATOM      3  H   TYR A   4      17.473  43.308  66.827  0.00  0.00    +0.150 HD
ATOM      4  O   GLY A   3      16.882  40.951  64.791  0.00  0.00    -0.273 OA
ENDROOT
BRANCH   2   5
ATOM      5  CA  TYR A   4      16.622  43.724  64.865  0.00  0.00    +0.153 C 
BRANCH   5   6
ATOM      6  C   TYR A   4      17.348  45.072  64.934  0.00  0.00    +0.241 C 
ATOM      7  O   TYR A   4      16.715  46.126  65.094  0.00  0.00    -0.273 OA
ATOM      8  N   VAL A   5      18.675  45.045  64.807  0.00  0.00    -0.297 N 
ATOM      9  H   VAL A   5      19.171  44.148  64.632  0.00  0.00    +0.150 HD
BRANCH   8  10
ATOM     10  CA  VAL A   5      19.416  46.287  64.917  0.00  0.00    +0.149 C 
BRANCH  10  11
ATOM     11  C   VAL A   5      19.533  46.958  63.556  0.00  0.00    +0.241 C 
ATOM     12  N   GLY A   6      19.104  48.208  63.450  0.00  0.00    -0.296 N 
ATOM     13  H   GLY A   6      18.773  48.712  64.297  0.00  0.00    +0.150 HD
ATOM     14  O   VAL A   5      19.988  46.349  62.608  0.00  0.00    -0.273 OA
BRANCH  12  15
ATOM     15  CA  GLY A   6      19.092  48.890  62.143  0.00  0.00    +0.163 C 
BRANCH  15  16
ATOM     16  C   GLY A   6      17.702  49.465  61.926  0.00  0.00    +0.229 C 
ATOM     17  O   GLY A   6      16.782  49.111  62.677  0.00  0.00    -0.286 OA
ENDBRANCH  15  16
ENDBRANCH  12  15
ENDBRANCH  10  11
BRANCH  10  18
ATOM     18  CB  VAL A   5      20.810  46.069  65.540  0.00  0.00    +0.027 C 
ATOM     19  CG2 VAL A   5      20.681  45.845  67.040  0.00  0.00    +0.002 C 
ATOM     20  CG1 VAL A   5      21.774  47.256  65.206  0.00  0.00    +0.002 C 
ENDBRANCH  10  18
ENDBRANCH   8  10
ENDBRANCH   5   6
BRANCH   5  21
ATOM     21  CB  TYR A   4      15.108  43.923  65.020  0.00  0.00    +0.055 C 
BRANCH  21  22
ATOM     22  CG  TYR A   4      14.325  42.604  64.876  0.00  0.00    -0.020 A 
ATOM     23  CD2 TYR A   4      14.242  41.712  65.940  0.00  0.00    -0.001 A 
ATOM     24  CE2 TYR A   4      13.550  40.535  65.838  0.00  0.00    +0.036 A 
ATOM     25  CZ  TYR A   4      12.943  40.201  64.613  0.00  0.00    +0.134 A 
ATOM     26  CE1 TYR A   4      13.032  41.058  63.503  0.00  0.00    +0.036 A 
ATOM     27  CD1 TYR A   4      13.712  42.259  63.657  0.00  0.00    -0.001 A 
BRANCH  25  28
ATOM     28  OH  TYR A   4      12.283  39.029  64.520  0.00  0.00    -0.506 OA
ATOM     29  HH  TYR A   4      11.546  39.013  65.180  0.00  0.00    +0.292 HD
ENDBRANCH  25  28
ENDBRANCH  21  22
ENDBRANCH   5  21
ENDBRANCH   2   5
BRANCH   1  30
ATOM     30  CA  GLY A   3      17.685  40.777  67.039  0.00  0.00    +0.176 C 
BRANCH  30  33
ATOM     31  C   SER A   2      17.169  38.583  67.894  0.00  0.00    +0.243 C 
ATOM     32  O   SER A   2      17.290  38.972  69.029  0.00  0.00    -0.273 OA
ATOM     33  N   GLY A   3      17.366  39.384  66.853  0.00  0.00    -0.295 N 
ATOM     34  H   GLY A   3      17.289  39.000  65.889  0.00  0.00    +0.150 HD
BRANCH  31  35
ATOM     35  CA  SER A   2      16.790  37.143  67.617  0.00  0.00    +0.178 C 
BRANCH  35  37
ATOM     36  C   LYS A   1      17.911  35.557  69.088  0.00  0.00    +0.238 C 
ATOM     37  N   SER A   2      16.877  36.356  68.834  0.00  0.00    -0.295 N 
ATOM     38  H   SER A   2      16.107  36.419  69.530  0.00  0.00    +0.150 HD
ATOM     39  O   LYS A   1      18.842  35.388  68.273  0.00  0.00    -0.274 OA
BRANCH  36  40
ATOM     40  CA  LYS A   1      17.896  34.821  70.426  0.00  0.00    +0.145 C 
BRANCH  40  41
ATOM     41  N   LYS A   1      17.841  33.404  70.166  0.00  0.00    -0.238 NA
ATOM     42  H   LYS A   1      18.714  32.912  69.888  0.00  0.00    +0.142 HD
ENDBRANCH  40  41
BRANCH  40  43
ATOM     43  CB  LYS A   1      19.151  35.132  71.261  0.00  0.00    +0.026 C 
BRANCH  43  44
ATOM     44  CG  LYS A   1      19.567  36.595  71.367  0.00  0.00    -0.000 C 
BRANCH  44  45
ATOM     45  CD  LYS A   1      21.079  36.659  71.731  0.00  0.00    -0.024 C 
BRANCH  45  46
ATOM     46  CE  LYS A   1      21.510  37.959  72.381  0.00  0.00    -0.086 C 
BRANCH  46  47
ATOM     47  NZ  LYS A   1      21.307  39.127  71.496  0.00  0.00    +0.380 N 
ATOM     48  HZ1 LYS A   1      21.617  39.990  71.987  0.00  0.00    -0.089 HD
ATOM     49  HZ2 LYS A   1      20.298  39.207  71.255  0.00  0.00    -0.089 HD
ATOM     50  HZ3 LYS A   1      21.864  39.002  70.626  0.00  0.00    -0.089 HD
ENDBRANCH  46  47
ENDBRANCH  45  46
ENDBRANCH  44  45
ENDBRANCH  43  44
ENDBRANCH  40  43
ENDBRANCH  36  40
ENDBRANCH  35  37
BRANCH  35  51
ATOM     51  CB  SER A   2      15.390  37.046  66.994  0.00  0.00    +0.166 C 
BRANCH  51  52
ATOM     52  OG  SER A   2      14.380  37.580  67.872  0.00  0.00    -0.380 OA
ATOM     53  H   SER A   2      13.493  37.501  67.439  0.00  0.00    +0.211 HD
ENDBRANCH  51  52
ENDBRANCH  35  51
ENDBRANCH  31  35
ENDBRANCH  30  33
ENDBRANCH   1  30
TORSDOF 23
REMARK  Name = ../refined-set-2016/2jkp/2jkp_pocket.pdb
REMARK  168 active torsions:
REMARK  status: ('A' for Active; 'I' for Inactive)
REMARK    1  A    between atoms: _1  and  _3
REMARK    2  A    between atoms: _3  and  _4
REMARK    3  A    between atoms: _3  and  _6
REMARK    4  A    between atoms: _6  and  _7
REMARK    5  A    between atoms: _7  and  _8
REMARK    6  A    between atoms: _11  and  _13
REMARK    7  A    between atoms: _13  and  _14
REMARK    8  A    between atoms: _13  and  _16
REMARK    9  A    between atoms: _16  and  _17
REMARK   10  A    between atoms: _19  and  _21
REMARK   11  A    between atoms: _21  and  _22
REMARK   12  A    between atoms: _21  and  _24
REMARK   13  A    between atoms: _24  and  _25
REMARK   14  A    between atoms: _30  and  _31
REMARK   15  A    between atoms: _33  and  _35
REMARK   16  A    between atoms: _35  and  _36
REMARK   17  A    between atoms: _35  and  _38
REMARK   18  A    between atoms: _41  and  _43
REMARK   19  A    between atoms: _43  and  _44
REMARK   20  A    between atoms: _43  and  _46
REMARK   21  A    between atoms: _46  and  _47
REMARK   22  A    between atoms: _57  and  _59
REMARK   23  A    between atoms: _59  and  _60
REMARK   24  A    between atoms: _59  and  _62
REMARK   25  A    between atoms: _62  and  _63
REMARK   26  A    between atoms: _73  and  _75
REMARK   27  A    between atoms: _75  and  _76
REMARK   28  A    between atoms: _75  and  _78
REMARK   29  A    between atoms: _78  and  _79
REMARK   30  A    between atoms: _79  and  _80
REMARK   31  A    between atoms: _82  and  _84
REMARK   32  A    between atoms: _84  and  _85
REMARK   33  A    between atoms: _84  and  _87
REMARK   34  A    between atoms: _87  and  _88
REMARK   35  A    between atoms: _91  and  _93
REMARK   36  A    between atoms: _93  and  _94
REMARK   37  A    between atoms: _93  and  _96
REMARK   38  A    between atoms: _96  and  _97
REMARK   39  A    between atoms: _107  and  _109
REMARK   40  A    between atoms: _109  and  _110
REMARK   41  A    between atoms: _109  and  _112
REMARK   42  A    between atoms: _112  and  _113
REMARK   43  A    between atoms: _116  and  _118
REMARK   44  A    between atoms: _118  and  _119
REMARK   45  A    between atoms: _118  and  _121
REMARK   46  A    between atoms: _121  and  _122
REMARK   47  A    between atoms: _122  and  _123
REMARK   48  A    between atoms: _126  and  _128
REMARK   49  A    between atoms: _128  and  _129
REMARK   50  A    between atoms: _131  and  _133
REMARK   51  A    between atoms: _133  and  _134
REMARK   52  A    between atoms: _133  and  _136
REMARK   53  A    between atoms: _136  and  _137
REMARK   54  A    between atoms: _147  and  _149
REMARK   55  A    between atoms: _149  and  _150
REMARK   56  A    between atoms: _149  and  _152
REMARK   57  A    between atoms: _152  and  _153
REMARK   58  A    between atoms: _163  and  _165
REMARK   59  A    between atoms: _165  and  _166
REMARK   60  A    between atoms: _165  and  _168
REMARK   61  A    between atoms: _168  and  _169
REMARK   62  A    between atoms: _175  and  _177
REMARK   63  A    between atoms: _177  and  _178
REMARK   64  A    between atoms: _177  and  _180
REMARK   65  A    between atoms: _180  and  _181
REMARK   66  A    between atoms: _187  and  _189
REMARK   67  A    between atoms: _189  and  _190
REMARK   68  A    between atoms: _189  and  _192
REMARK   69  A    between atoms: _192  and  _193
REMARK   70  A    between atoms: _198  and  _200
REMARK   71  A    between atoms: _200  and  _201
REMARK   72  A    between atoms: _200  and  _203
REMARK   73  A    between atoms: _203  and  _204
REMARK   74  A    between atoms: _209  and  _211
REMARK   75  A    between atoms: _211  and  _212
REMARK   76  A    between atoms: _211  and  _214
REMARK   77  A    between atoms: _214  and  _215
REMARK   78  A    between atoms: _215  and  _216
REMARK   79  A    between atoms: _219  and  _221
REMARK   80  A    between atoms: _221  and  _222
REMARK   81  A    between atoms: _221  and  _224
REMARK   82  A    between atoms: _224  and  _225
REMARK   83  A    between atoms: _228  and  _230
REMARK   84  A    between atoms: _230  and  _231
REMARK   85  A    between atoms: _230  and  _233
REMARK   86  A    between atoms: _233  and  _234
REMARK   87  A    between atoms: _236  and  _238
REMARK   88  A    between atoms: _238  and  _239
REMARK   89  A    between atoms: _238  and  _241
REMARK   90  A    between atoms: _241  and  _242
REMARK   91  A    between atoms: _242  and  _243
REMARK   92  A    between atoms: _243  and  _244
REMARK   93  A    between atoms: _244  and  _245
REMARK   94  A    between atoms: _249  and  _251
REMARK   95  A    between atoms: _251  and  _252
REMARK   96  A    between atoms: _251  and  _254
REMARK   97  A    between atoms: _254  and  _255
REMARK   98  A    between atoms: _257  and  _259
REMARK   99  A    between atoms: _259  and  _260
REMARK  100  A    between atoms: _262  and  _264
REMARK  101  A    between atoms: _264  and  _265
REMARK  102  A    between atoms: _264  and  _267
REMARK  103  A    between atoms: _267  and  _268
REMARK  104  A    between atoms: _273  and  _274
REMARK  105  A    between atoms: _276  and  _278
REMARK  106  A    between atoms: _278  and  _279
REMARK  107  A    between atoms: _278  and  _281
REMARK  108  A    between atoms: _284  and  _286
REMARK  109  A    between atoms: _286  and  _287
REMARK  110  A    between atoms: _289  and  _291
REMARK  111  A    between atoms: _291  and  _292
REMARK  112  A    between atoms: _291  and  _294
REMARK  113  A    between atoms: _294  and  _295
REMARK  114  A    between atoms: _300  and  _302
REMARK  115  A    between atoms: _302  and  _303
REMARK  116  A    between atoms: _306  and  _308
REMARK  117  A    between atoms: _308  and  _309
REMARK  118  A    between atoms: _308  and  _311
REMARK  119  A    between atoms: _311  and  _312
REMARK  120  A    between atoms: _317  and  _319
REMARK  121  A    between atoms: _319  and  _320
REMARK  122  A    between atoms: _319  and  _322
REMARK  123  A    between atoms: _322  and  _323
REMARK  124  A    between atoms: _323  and  _324
REMARK  125  A    between atoms: _327  and  _329
REMARK  126  A    between atoms: _329  and  _330
REMARK  127  A    between atoms: _329  and  _332
REMARK  128  A    between atoms: _332  and  _333
REMARK  129  A    between atoms: _333  and  _334
REMARK  130  A    between atoms: _334  and  _335
REMARK  131  A    between atoms: _335  and  CA_419
REMARK  132  A    between atoms: _337  and  _339
REMARK  133  A    between atoms: _339  and  _340
REMARK  134  A    between atoms: _339  and  _342
REMARK  135  A    between atoms: _342  and  _343
REMARK  136  A    between atoms: _345  and  _347
REMARK  137  A    between atoms: _347  and  _348
REMARK  138  A    between atoms: _351  and  _353
REMARK  139  A    between atoms: _353  and  _354
REMARK  140  A    between atoms: _356  and  _358
REMARK  141  A    between atoms: _358  and  _359
REMARK  142  A    between atoms: _358  and  _361
REMARK  143  A    between atoms: _361  and  _362
REMARK  144  A    between atoms: _362  and  _363
REMARK  145  A    between atoms: _363  and  _365
REMARK  146  A    between atoms: _365  and  CA_419
REMARK  147  A    between atoms: _366  and  _368
REMARK  148  A    between atoms: _368  and  _369
REMARK  149  A    between atoms: _368  and  _371
REMARK  150  A    between atoms: _371  and  _372
REMARK  151  A    between atoms: _377  and  _378
REMARK  152  A    between atoms: _380  and  _382
REMARK  153  A    between atoms: _382  and  _383
REMARK  154  A    between atoms: _382  and  _385
REMARK  155  A    between atoms: _385  and  _386
REMARK  156  A    between atoms: _392  and  _394
REMARK  157  A    between atoms: _394  and  _395
REMARK  158  A    between atoms: _394  and  _397
REMARK  159  A    between atoms: _397  and  _398
REMARK  160  A    between atoms: _401  and  _403
REMARK  161  A    between atoms: _403  and  _404
REMARK  162  A    between atoms: _403  and  _406
REMARK  163  A    between atoms: _406  and  _407
REMARK  164  A    between atoms: _410  and  _412
REMARK  165  A    between atoms: _412  and  _413
REMARK  166  A    between atoms: _412  and  _415
REMARK  167  A    between atoms: _415  and  _416
REMARK  168  A    between atoms: _416  and  _417
REMARK                            x       y       z     vdW  Elec       q    Type
REMARK                         _______ _______ _______ _____ _____    ______ ____
ROOT
ATOM      1  C   ALA A   2      14.356  40.165  71.289  0.00  0.00    +0.241 C 
ATOM      2  O   ALA A   2      13.590  40.899  71.901  0.00  0.00    -0.273 OA
ATOM      3  N   HIS A   3      15.592  40.516  70.921  0.00  0.00    -0.297 N 
ATOM      4  H   HIS A   3      16.181  39.817  70.425  0.00  0.00    +0.150 HD
ENDROOT
BRANCH   1   5
ATOM      5  CA  ALA A   2      13.888  38.795  70.823  0.00  0.00    +0.149 C 
ATOM      6  CB  ALA A   2      12.690  38.933  69.949  0.00  0.00    +0.031 C 
BRANCH   5   8
ATOM      7  C   ASN A   1      14.483  36.831  72.060  0.00  0.00    +0.239 C 
ATOM      8  N   ALA A   2      13.656  37.845  71.910  0.00  0.00    -0.297 N 
ATOM      9  H   ALA A   2      12.850  37.968  72.555  0.00  0.00    +0.150 HD
ATOM     10  O   ASN A   1      15.514  36.732  71.399  0.00  0.00    -0.274 OA
BRANCH   7  11
ATOM     11  CA  ASN A   1      14.090  35.743  73.032  0.00  0.00    +0.154 C 
BRANCH  11  12
ATOM     12  N   ASN A   1      13.718  34.576  72.248  0.00  0.00    -0.238 NA
ATOM     13  H   ASN A   1      14.349  34.268  71.481  0.00  0.00    +0.142 HD
ENDBRANCH  11  12
BRANCH  11  14
ATOM     14  CB  ASN A   1      15.279  35.410  73.944  0.00  0.00    +0.111 C 
BRANCH  14  15
ATOM     15  CG  ASN A   1      15.987  36.661  74.455  0.00  0.00    +0.221 C 
ATOM     16  OD1 ASN A   1      15.354  37.679  74.789  0.00  0.00    -0.275 OA
ATOM     17  ND2 ASN A   1      17.308  36.613  74.448  0.00  0.00    -0.329 N 
ATOM     18 HD21 ASN A   1      17.860  37.448  74.729  0.00  0.00    +0.145 HD
ATOM     19 HD22 ASN A   1      17.795  35.740  74.161  0.00  0.00    +0.145 HD
ENDBRANCH  14  15
ENDBRANCH  11  14
ENDBRANCH   7  11
ENDBRANCH   5   8
ENDBRANCH   1   5
BRANCH   3  20
ATOM     20  CA  HIS A   3      16.155  41.846  71.187  0.00  0.00    +0.155 C 
BRANCH  20  21
ATOM     21  C   HIS A   3      15.608  42.852  70.190  0.00  0.00    +0.241 C 
ATOM     22  N   GLU A   4      15.466  44.106  70.599  0.00  0.00    -0.298 N 
ATOM     23  H   GLU A   4      15.748  44.346  71.571  0.00  0.00    +0.150 HD
ATOM     24  O   HIS A   3      15.285  42.469  69.077  0.00  0.00    -0.273 OA
BRANCH  22  25
ATOM     25  CA  GLU A   4      14.922  45.185  69.731  0.00  0.00    +0.137 C 
BRANCH  25  26
ATOM     26  C   GLU A   4      13.461  45.039  69.269  0.00  0.00    +0.227 C 
ATOM     27  O   GLU A   4      12.969  45.872  68.509  0.00  0.00    -0.286 OA
ENDBRANCH  25  26
BRANCH  25  28
ATOM     28  CB  GLU A   4      15.814  45.409  68.484  0.00  0.00    +0.039 C 
BRANCH  28  29
ATOM     29  CG  GLU A   4      17.191  45.969  68.775  0.00  0.00    +0.116 C 
BRANCH  29  30
ATOM     30  CD  GLU A   4      18.185  44.908  69.188  0.00  0.00    +0.365 C 
ATOM     31  OE2 GLU A   4      18.918  45.154  70.202  0.00  0.00    -0.246 OA
ATOM     32  OE1 GLU A   4      18.230  43.843  68.511  0.00  0.00    -0.246 OA
ENDBRANCH  29  30
ENDBRANCH  28  29
ENDBRANCH  25  28
ENDBRANCH  22  25
ENDBRANCH  20  21
BRANCH  20  33
ATOM     33  CB  HIS A   3      17.673  41.794  71.098  0.00  0.00    +0.076 C 
BRANCH  33  34
ATOM     34  CG  HIS A   3      18.329  41.331  72.366  0.00  0.00    +0.082 A 
ATOM     35  CD2 HIS A   3      19.321  41.875  73.109  0.00  0.00    +0.115 A 
ATOM     36  NE2 HIS A   3      19.532  41.033  74.181  0.00  0.00    -0.221 NA
ATOM     37  CE1 HIS A   3      18.658  40.039  74.134  0.00  0.00    +0.199 A 
ATOM     38  ND1 HIS A   3      17.921  40.195  73.041  0.00  0.00    -0.227 NA
ENDBRANCH  33  34
ENDBRANCH  20  33
ENDBRANCH   3  20
TORSDOF 15
REMARK  Name = ../refined-set-2016/2jkp/2jkp_pocket.pdb
REMARK  168 active torsions:
REMARK  status: ('A' for Active; 'I' for Inactive)
REMARK    1  A    between atoms: _1  and  _3
REMARK    2  A    between atoms: _3  and  _4
REMARK    3  A    between atoms: _3  and  _6
REMARK    4  A    between atoms: _6  and  _7
REMARK    5  A    between atoms: _7  and  _8
REMARK    6  A    between atoms: _11  and  _13
REMARK    7  A    between atoms: _13  and  _14
REMARK    8  A    between atoms: _13  and  _16
REMARK    9  A    between atoms: _16  and  _17
REMARK   10  A    between atoms: _19  and  _21
REMARK   11  A    between atoms: _21  and  _22
REMARK   12  A    between atoms: _21  and  _24
REMARK   13  A    between atoms: _24  and  _25
REMARK   14  A    between atoms: _30  and  _31
REMARK   15  A    between atoms: _33  and  _35
REMARK   16  A    between atoms: _35  and  _36
REMARK   17  A    between atoms: _35  and  _38
REMARK   18  A    between atoms: _41  and  _43
REMARK   19  A    between atoms: _43  and  _44
REMARK   20  A    between atoms: _43  and  _46
REMARK   21  A    between atoms: _46  and  _47
REMARK   22  A    between atoms: _57  and  _59
REMARK   23  A    between atoms: _59  and  _60
REMARK   24  A    between atoms: _59  and  _62
REMARK   25  A    between atoms: _62  and  _63
REMARK   26  A    between atoms: _73  and  _75
REMARK   27  A    between atoms: _75  and  _76
REMARK   28  A    between atoms: _75  and  _78
REMARK   29  A    between atoms: _78  and  _79
REMARK   30  A    between atoms: _79  and  _80
REMARK   31  A    between atoms: _82  and  _84
REMARK   32  A    between atoms: _84  and  _85
REMARK   33  A    between atoms: _84  and  _87
REMARK   34  A    between atoms: _87  and  _88
REMARK   35  A    between atoms: _91  and  _93
REMARK   36  A    between atoms: _93  and  _94
REMARK   37  A    between atoms: _93  and  _96
REMARK   38  A    between atoms: _96  and  _97
REMARK   39  A    between atoms: _107  and  _109
REMARK   40  A    between atoms: _109  and  _110
REMARK   41  A    between atoms: _109  and  _112
REMARK   42  A    between atoms: _112  and  _113
REMARK   43  A    between atoms: _116  and  _118
REMARK   44  A    between atoms: _118  and  _119
REMARK   45  A    between atoms: _118  and  _121
REMARK   46  A    between atoms: _121  and  _122
REMARK   47  A    between atoms: _122  and  _123
REMARK   48  A    between atoms: _126  and  _128
REMARK   49  A    between atoms: _128  and  _129
REMARK   50  A    between atoms: _131  and  _133
REMARK   51  A    between atoms: _133  and  _134
REMARK   52  A    between atoms: _133  and  _136
REMARK   53  A    between atoms: _136  and  _137
REMARK   54  A    between atoms: _147  and  _149
REMARK   55  A    between atoms: _149  and  _150
REMARK   56  A    between atoms: _149  and  _152
REMARK   57  A    between atoms: _152  and  _153
REMARK   58  A    between atoms: _163  and  _165
REMARK   59  A    between atoms: _165  and  _166
REMARK   60  A    between atoms: _165  and  _168
REMARK   61  A    between atoms: _168  and  _169
REMARK   62  A    between atoms: _175  and  _177
REMARK   63  A    between atoms: _177  and  _178
REMARK   64  A    between atoms: _177  and  _180
REMARK   65  A    between atoms: _180  and  _181
REMARK   66  A    between atoms: _187  and  _189
REMARK   67  A    between atoms: _189  and  _190
REMARK   68  A    between atoms: _189  and  _192
REMARK   69  A    between atoms: _192  and  _193
REMARK   70  A    between atoms: _198  and  _200
REMARK   71  A    between atoms: _200  and  _201
REMARK   72  A    between atoms: _200  and  _203
REMARK   73  A    between atoms: _203  and  _204
REMARK   74  A    between atoms: _209  and  _211
REMARK   75  A    between atoms: _211  and  _212
REMARK   76  A    between atoms: _211  and  _214
REMARK   77  A    between atoms: _214  and  _215
REMARK   78  A    between atoms: _215  and  _216
REMARK   79  A    between atoms: _219  and  _221
REMARK   80  A    between atoms: _221  and  _222
REMARK   81  A    between atoms: _221  and  _224
REMARK   82  A    between atoms: _224  and  _225
REMARK   83  A    between atoms: _228  and  _230
REMARK   84  A    between atoms: _230  and  _231
REMARK   85  A    between atoms: _230  and  _233
REMARK   86  A    between atoms: _233  and  _234
REMARK   87  A    between atoms: _236  and  _238
REMARK   88  A    between atoms: _238  and  _239
REMARK   89  A    between atoms: _238  and  _241
REMARK   90  A    between atoms: _241  and  _242
REMARK   91  A    between atoms: _242  and  _243
REMARK   92  A    between atoms: _243  and  _244
REMARK   93  A    between atoms: _244  and  _245
REMARK   94  A    between atoms: _249  and  _251
REMARK   95  A    between atoms: _251  and  _252
REMARK   96  A    between atoms: _251  and  _254
REMARK   97  A    between atoms: _254  and  _255
REMARK   98  A    between atoms: _257  and  _259
REMARK   99  A    between atoms: _259  and  _260
REMARK  100  A    between atoms: _262  and  _264
REMARK  101  A    between atoms: _264  and  _265
REMARK  102  A    between atoms: _264  and  _267
REMARK  103  A    between atoms: _267  and  _268
REMARK  104  A    between atoms: _273  and  _274
REMARK  105  A    between atoms: _276  and  _278
REMARK  106  A    between atoms: _278  and  _279
REMARK  107  A    between atoms: _278  and  _281
REMARK  108  A    between atoms: _284  and  _286
REMARK  109  A    between atoms: _286  and  _287
REMARK  110  A    between atoms: _289  and  _291
REMARK  111  A    between atoms: _291  and  _292
REMARK  112  A    between atoms: _291  and  _294
REMARK  113  A    between atoms: _294  and  _295
REMARK  114  A    between atoms: _300  and  _302
REMARK  115  A    between atoms: _302  and  _303
REMARK  116  A    between atoms: _306  and  _308
REMARK  117  A    between atoms: _308  and  _309
REMARK  118  A    between atoms: _308  and  _311
REMARK  119  A    between atoms: _311  and  _312
REMARK  120  A    between atoms: _317  and  _319
REMARK  121  A    between atoms: _319  and  _320
REMARK  122  A    between atoms: _319  and  _322
REMARK  123  A    between atoms: _322  and  _323
REMARK  124  A    between atoms: _323  and  _324
REMARK  125  A    between atoms: _327  and  _329
REMARK  126  A    between atoms: _329  and  _330
REMARK  127  A    between atoms: _329  and  _332
REMARK  128  A    between atoms: _332  and  _333
REMARK  129  A    between atoms: _333  and  _334
REMARK  130  A    between atoms: _334  and  _335
REMARK  131  A    between atoms: _335  and  CA_419
REMARK  132  A    between atoms: _337  and  _339
REMARK  133  A    between atoms: _339  and  _340
REMARK  134  A    between atoms: _339  and  _342
REMARK  135  A    between atoms: _342  and  _343
REMARK  136  A    between atoms: _345  and  _347
REMARK  137  A    between atoms: _347  and  _348
REMARK  138  A    between atoms: _351  and  _353
REMARK  139  A    between atoms: _353  and  _354
REMARK  140  A    between atoms: _356  and  _358
REMARK  141  A    between atoms: _358  and  _359
REMARK  142  A    between atoms: _358  and  _361
REMARK  143  A    between atoms: _361  and  _362
REMARK  144  A    between atoms: _362  and  _363
REMARK  145  A    between atoms: _363  and  _365
REMARK  146  A    between atoms: _365  and  CA_419
REMARK  147  A    between atoms: _366  and  _368
REMARK  148  A    between atoms: _368  and  _369
REMARK  149  A    between atoms: _368  and  _371
REMARK  150  A    between atoms: _371  and  _372
REMARK  151  A    between atoms: _377  and  _378
REMARK  152  A    between atoms: _380  and  _382
REMARK  153  A    between atoms: _382  and  _383
REMARK  154  A    between atoms: _382  and  _385
REMARK  155  A    between atoms: _385  and  _386
REMARK  156  A    between atoms: _392  and  _394
REMARK  157  A    between atoms: _394  and  _395
REMARK  158  A    between atoms: _394  and  _397
REMARK  159  A    between atoms: _397  and  _398
REMARK  160  A    between atoms: _401  and  _403
REMARK  161  A    between atoms: _403  and  _404
REMARK  162  A    between atoms: _403  and  _406
REMARK  163  A    between atoms: _406  and  _407
REMARK  164  A    between atoms: _410  and  _412
REMARK  165  A    between atoms: _412  and  _413
REMARK  166  A    between atoms: _412  and  _415
REMARK  167  A    between atoms: _415  and  _416
REMARK  168  A    between atoms: _416  and  _417
REMARK                            x       y       z     vdW  Elec       q    Type
REMARK                         _______ _______ _______ _____ _____    ______ ____
ROOT
ATOM      1 CA   UNK A   1      20.303  45.948  71.928  0.00  0.00    +0.000 Ca
ENDROOT
BRANCH   1   2
ATOM      2  O   UNK A   1      21.845  46.456  73.525  0.00  0.00    +0.000 OA
BRANCH   2   3
ATOM      3  C   UNK A   1      23.052  46.207  73.726  0.00  0.00    +0.000 C 
ATOM      4  O   UNK A   1      23.829  45.801  72.824  0.00  0.00    +0.000 OA
BRANCH   3   5
ATOM      5  C   UNK A   1      23.591  46.474  75.115  0.00  0.00    +0.000 C 
BRANCH   5   6
ATOM      6  C   UNK A   1      24.645  45.508  75.555  0.00  0.00    +0.000 C 
BRANCH   6   7
ATOM      7  C   UNK A   1      25.259  45.871  76.929  0.00  0.00    +0.000 C 
BRANCH   7   8
ATOM      8  C   UNK A   1      25.657  47.361  77.000  0.00  0.00    +0.000 C 
ATOM      9  N   TYR A   2      24.785  48.238  77.489  0.00  0.00    +0.000 N 
ATOM     10  H   TYR A   2      23.857  47.921  77.836  0.00  0.00    +0.000 HD
ATOM     11  O   UNK A   1      26.776  47.714  76.633  0.00  0.00    +0.000 OA
BRANCH   9  12
ATOM     12  CA  TYR A   2      25.147  49.648  77.532  0.00  0.00    +0.000 C 
BRANCH  12  13
ATOM     13  C   TYR A   2      26.099  49.992  78.696  0.00  0.00    +0.000 C 
ATOM     14  O   TYR A   2      26.608  51.129  78.781  0.00  0.00    +0.000 OA
ENDBRANCH  12  13
BRANCH  12  15
ATOM     15  CB  TYR A   2      23.927  50.570  77.534  0.00  0.00    +0.000 C 
BRANCH  15  16
ATOM     16  CG  TYR A   2      23.349  50.814  76.159  0.00  0.00    +0.000 A 
ATOM     17  CD2 TYR A   2      22.552  49.842  75.534  0.00  0.00    +0.000 A 
ATOM     18  CE2 TYR A   2      22.016  50.048  74.280  0.00  0.00    +0.000 A 
ATOM     19  CZ  TYR A   2      22.292  51.217  73.618  0.00  0.00    +0.000 A 
ATOM     20  CE1 TYR A   2      23.052  52.215  74.225  0.00  0.00    +0.000 A 
ATOM     21  CD1 TYR A   2      23.568  52.009  75.493  0.00  0.00    +0.000 A 
BRANCH  19  22
ATOM     22  OH  TYR A   2      21.764  51.415  72.353  0.00  0.00    +0.000 OA
ATOM     23  HH  TYR A   2      21.257  50.610  72.079  0.00  0.00    +0.000 HD
ENDBRANCH  19  22
ENDBRANCH  15  16
ENDBRANCH  12  15
ENDBRANCH   9  12
ENDBRANCH   7   8
BRANCH   7  24
ATOM     24  N   UNK A   1      24.367  45.492  78.047  0.00  0.00    +0.000 NA
ATOM     25  H   UNK A   1      23.433  45.076  77.858  0.00  0.00    +0.000 HD
ENDBRANCH   7  24
ENDBRANCH   6   7
ENDBRANCH   5   6
ENDBRANCH   3   5
ENDBRANCH   2   3
ENDBRANCH   1   2
BRANCH   1  26
ATOM     26  O   UNK A   1      18.863  45.004  73.509  0.00  0.00    +0.000 OA
BRANCH  26  27
ATOM     27  C   UNK A   1      18.938  44.493  74.640  0.00  0.00    +0.000 C 
ATOM     28  O   UNK A   1      20.028  44.179  75.176  0.00  0.00    +0.000 OA
BRANCH  27  29
ATOM     29  C   UNK A   1      17.642  44.267  75.426  0.00  0.00    +0.000 C 
BRANCH  29  30
ATOM     30  C   UNK A   1      16.735  43.297  74.727  0.00  0.00    +0.000 C 
BRANCH  30  31
ATOM     31  C   UNK A   1      15.505  42.984  75.575  0.00  0.00    +0.000 C 
BRANCH  31  32
ATOM     32  C   UNK A   1      14.591  44.190  75.690  0.00  0.00    +0.000 C 
ATOM     33  O   UNK A   1      13.893  44.342  76.706  0.00  0.00    +0.000 OA
ATOM     34  N   TYR A   2      14.545  45.011  74.642  0.00  0.00    +0.000 N 
ATOM     35  H   TYR A   2      15.305  44.987  73.932  0.00  0.00    +0.000 HD
BRANCH  34  36
ATOM     36  CA  TYR A   2      13.435  45.944  74.484  0.00  0.00    +0.000 C 
BRANCH  36  37
ATOM     37  C   TYR A   2      13.433  47.018  75.570  0.00  0.00    +0.000 C 
ATOM     38  O   TYR A   2      12.379  47.475  76.061  0.00  0.00    +0.000 OA
ATOM     39  N   ALA A   3      14.656  47.416  75.909  0.00  0.00    +0.000 N 
ATOM     40  H   ALA A   3      15.448  47.034  75.353  0.00  0.00    +0.000 HD
BRANCH  39  41
ATOM     41  CA  ALA A   3      14.990  48.339  76.989  0.00  0.00    +0.000 C 
ATOM     42  CB  ALA A   3      14.462  47.856  78.362  0.00  0.00    +0.000 C 
BRANCH  41  43
ATOM     43  C   ALA A   3      16.507  48.408  77.051  0.00  0.00    +0.000 C 
ATOM     44  O   ALA A   3      17.196  47.672  76.360  0.00  0.00    +0.000 OA
ENDBRANCH  41  43
ENDBRANCH  39  41
ENDBRANCH  36  37
BRANCH  36  45
ATOM     45  CB  TYR A   2      12.118  45.164  74.397  0.00  0.00    +0.000 C 
BRANCH  45  46
ATOM     46  O   TYR A   2      12.181  44.249  73.268  0.00  0.00    +0.000 OA
ATOM     47  H   TYR A   2      12.319  44.765  72.434  0.00  0.00    +0.000 HD
ENDBRANCH  45  46
ENDBRANCH  36  45
ENDBRANCH  34  36
ENDBRANCH  31  32
BRANCH  31  48
ATOM     48  N   UNK A   1      14.712  41.904  74.982  0.00  0.00    +0.000 NA
ATOM     49  H   UNK A   1      14.688  41.789  73.949  0.00  0.00    +0.000 HD
ENDBRANCH  31  48
ENDBRANCH  30  31
ENDBRANCH  29  30
ENDBRANCH  27  29
ENDBRANCH  26  27
ENDBRANCH   1  26
TORSDOF 25
REMARK  Name = ../refined-set-2016/2jkp/2jkp_pocket.pdb
REMARK  168 active torsions:
REMARK  status: ('A' for Active; 'I' for Inactive)
REMARK    1  A    between atoms: _1  and  _3
REMARK    2  A    between atoms: _3  and  _4
REMARK    3  A    between atoms: _3  and  _6
REMARK    4  A    between atoms: _6  and  _7
REMARK    5  A    between atoms: _7  and  _8
REMARK    6  A    between atoms: _11  and  _13
REMARK    7  A    between atoms: _13  and  _14
REMARK    8  A    between atoms: _13  and  _16
REMARK    9  A    between atoms: _16  and  _17
REMARK   10  A    between atoms: _19  and  _21
REMARK   11  A    between atoms: _21  and  _22
REMARK   12  A    between atoms: _21  and  _24
REMARK   13  A    between atoms: _24  and  _25
REMARK   14  A    between atoms: _30  and  _31
REMARK   15  A    between atoms: _33  and  _35
REMARK   16  A    between atoms: _35  and  _36
REMARK   17  A    between atoms: _35  and  _38
REMARK   18  A    between atoms: _41  and  _43
REMARK   19  A    between atoms: _43  and  _44
REMARK   20  A    between atoms: _43  and  _46
REMARK   21  A    between atoms: _46  and  _47
REMARK   22  A    between atoms: _57  and  _59
REMARK   23  A    between atoms: _59  and  _60
REMARK   24  A    between atoms: _59  and  _62
REMARK   25  A    between atoms: _62  and  _63
REMARK   26  A    between atoms: _73  and  _75
REMARK   27  A    between atoms: _75  and  _76
REMARK   28  A    between atoms: _75  and  _78
REMARK   29  A    between atoms: _78  and  _79
REMARK   30  A    between atoms: _79  and  _80
REMARK   31  A    between atoms: _82  and  _84
REMARK   32  A    between atoms: _84  and  _85
REMARK   33  A    between atoms: _84  and  _87
REMARK   34  A    between atoms: _87  and  _88
REMARK   35  A    between atoms: _91  and  _93
REMARK   36  A    between atoms: _93  and  _94
REMARK   37  A    between atoms: _93  and  _96
REMARK   38  A    between atoms: _96  and  _97
REMARK   39  A    between atoms: _107  and  _109
REMARK   40  A    between atoms: _109  and  _110
REMARK   41  A    between atoms: _109  and  _112
REMARK   42  A    between atoms: _112  and  _113
REMARK   43  A    between atoms: _116  and  _118
REMARK   44  A    between atoms: _118  and  _119
REMARK   45  A    between atoms: _118  and  _121
REMARK   46  A    between atoms: _121  and  _122
REMARK   47  A    between atoms: _122  and  _123
REMARK   48  A    between atoms: _126  and  _128
REMARK   49  A    between atoms: _128  and  _129
REMARK   50  A    between atoms: _131  and  _133
REMARK   51  A    between atoms: _133  and  _134
REMARK   52  A    between atoms: _133  and  _136
REMARK   53  A    between atoms: _136  and  _137
REMARK   54  A    between atoms: _147  and  _149
REMARK   55  A    between atoms: _149  and  _150
REMARK   56  A    between atoms: _149  and  _152
REMARK   57  A    between atoms: _152  and  _153
REMARK   58  A    between atoms: _163  and  _165
REMARK   59  A    between atoms: _165  and  _166
REMARK   60  A    between atoms: _165  and  _168
REMARK   61  A    between atoms: _168  and  _169
REMARK   62  A    between atoms: _175  and  _177
REMARK   63  A    between atoms: _177  and  _178
REMARK   64  A    between atoms: _177  and  _180
REMARK   65  A    between atoms: _180  and  _181
REMARK   66  A    between atoms: _187  and  _189
REMARK   67  A    between atoms: _189  and  _190
REMARK   68  A    between atoms: _189  and  _192
REMARK   69  A    between atoms: _192  and  _193
REMARK   70  A    between atoms: _198  and  _200
REMARK   71  A    between atoms: _200  and  _201
REMARK   72  A    between atoms: _200  and  _203
REMARK   73  A    between atoms: _203  and  _204
REMARK   74  A    between atoms: _209  and  _211
REMARK   75  A    between atoms: _211  and  _212
REMARK   76  A    between atoms: _211  and  _214
REMARK   77  A    between atoms: _214  and  _215
REMARK   78  A    between atoms: _215  and  _216
REMARK   79  A    between atoms: _219  and  _221
REMARK   80  A    between atoms: _221  and  _222
REMARK   81  A    between atoms: _221  and  _224
REMARK   82  A    between atoms: _224  and  _225
REMARK   83  A    between atoms: _228  and  _230
REMARK   84  A    between atoms: _230  and  _231
REMARK   85  A    between atoms: _230  and  _233
REMARK   86  A    between atoms: _233  and  _234
REMARK   87  A    between atoms: _236  and  _238
REMARK   88  A    between atoms: _238  and  _239
REMARK   89  A    between atoms: _238  and  _241
REMARK   90  A    between atoms: _241  and  _242
REMARK   91  A    between atoms: _242  and  _243
REMARK   92  A    between atoms: _243  and  _244
REMARK   93  A    between atoms: _244  and  _245
REMARK   94  A    between atoms: _249  and  _251
REMARK   95  A    between atoms: _251  and  _252
REMARK   96  A    between atoms: _251  and  _254
REMARK   97  A    between atoms: _254  and  _255
REMARK   98  A    between atoms: _257  and  _259
REMARK   99  A    between atoms: _259  and  _260
REMARK  100  A    between atoms: _262  and  _264
REMARK  101  A    between atoms: _264  and  _265
REMARK  102  A    between atoms: _264  and  _267
REMARK  103  A    between atoms: _267  and  _268
REMARK  104  A    between atoms: _273  and  _274
REMARK  105  A    between atoms: _276  and  _278
REMARK  106  A    between atoms: _278  and  _279
REMARK  107  A    between atoms: _278  and  _281
REMARK  108  A    between atoms: _284  and  _286
REMARK  109  A    between atoms: _286  and  _287
REMARK  110  A    between atoms: _289  and  _291
REMARK  111  A    between atoms: _291  and  _292
REMARK  112  A    between atoms: _291  and  _294
REMARK  113  A    between atoms: _294  and  _295
REMARK  114  A    between atoms: _300  and  _302
REMARK  115  A    between atoms: _302  and  _303
REMARK  116  A    between atoms: _306  and  _308
REMARK  117  A    between atoms: _308  and  _309
REMARK  118  A    between atoms: _308  and  _311
REMARK  119  A    between atoms: _311  and  _312
REMARK  120  A    between atoms: _317  and  _319
REMARK  121  A    between atoms: _319  and  _320
REMARK  122  A    between atoms: _319  and  _322
REMARK  123  A    between atoms: _322  and  _323
REMARK  124  A    between atoms: _323  and  _324
REMARK  125  A    between atoms: _327  and  _329
REMARK  126  A    between atoms: _329  and  _330
REMARK  127  A    between atoms: _329  and  _332
REMARK  128  A    between atoms: _332  and  _333
REMARK  129  A    between atoms: _333  and  _334
REMARK  130  A    between atoms: _334  and  _335
REMARK  131  A    between atoms: _335  and  CA_419
REMARK  132  A    between atoms: _337  and  _339
REMARK  133  A    between atoms: _339  and  _340
REMARK  134  A    between atoms: _339  and  _342
REMARK  135  A    between atoms: _342  and  _343
REMARK  136  A    between atoms: _345  and  _347
REMARK  137  A    between atoms: _347  and  _348
REMARK  138  A    between atoms: _351  and  _353
REMARK  139  A    between atoms: _353  and  _354
REMARK  140  A    between atoms: _356  and  _358
REMARK  141  A    between atoms: _358  and  _359
REMARK  142  A    between atoms: _358  and  _361
REMARK  143  A    between atoms: _361  and  _362
REMARK  144  A    between atoms: _362  and  _363
REMARK  145  A    between atoms: _363  and  _365
REMARK  146  A    between atoms: _365  and  CA_419
REMARK  147  A    between atoms: _366  and  _368
REMARK  148  A    between atoms: _368  and  _369
REMARK  149  A    between atoms: _368  and  _371
REMARK  150  A    between atoms: _371  and  _372
REMARK  151  A    between atoms: _377  and  _378
REMARK  152  A    between atoms: _380  and  _382
REMARK  153  A    between atoms: _382  and  _383
REMARK  154  A    between atoms: _382  and  _385
REMARK  155  A    between atoms: _385  and  _386
REMARK  156  A    between atoms: _392  and  _394
REMARK  157  A    between atoms: _394  and  _395
REMARK  158  A    between atoms: _394  and  _397
REMARK  159  A    between atoms: _397  and  _398
REMARK  160  A    between atoms: _401  and  _403
REMARK  161  A    between atoms: _403  and  _404
REMARK  162  A    between atoms: _403  and  _406
REMARK  163  A    between atoms: _406  and  _407
REMARK  164  A    between atoms: _410  and  _412
REMARK  165  A    between atoms: _412  and  _413
REMARK  166  A    between atoms: _412  and  _415
REMARK  167  A    between atoms: _415  and  _416
REMARK  168  A    between atoms: _416  and  _417
REMARK                            x       y       z     vdW  Elec       q    Type
REMARK                         _______ _______ _______ _____ _____    ______ ____
ROOT
ATOM      1  CA  GLY A   1      20.402  46.303  79.002  0.00  0.00    +0.156 C 
ENDROOT
BRANCH   1   2
ATOM      2  N   GLY A   1      19.879  47.441  78.270  0.00  0.00    -0.238 NA
ATOM      3  H   GLY A   1      20.144  47.575  77.273  0.00  0.00    +0.142 HD
ENDBRANCH   1   2
BRANCH   1   4
ATOM      4  C   GLY A   1      21.881  46.431  79.414  0.00  0.00    +0.226 C 
ATOM      5  O   GLY A   1      22.549  47.452  79.170  0.00  0.00    -0.287 OA
ENDBRANCH   1   4
TORSDOF 2
REMARK  Name = ../refined-set-2016/2jkp/2jkp_pocket.pdb
REMARK  168 active torsions:
REMARK  status: ('A' for Active; 'I' for Inactive)
REMARK    1  A    between atoms: _1  and  _3
REMARK    2  A    between atoms: _3  and  _4
REMARK    3  A    between atoms: _3  and  _6
REMARK    4  A    between atoms: _6  and  _7
REMARK    5  A    between atoms: _7  and  _8
REMARK    6  A    between atoms: _11  and  _13
REMARK    7  A    between atoms: _13  and  _14
REMARK    8  A    between atoms: _13  and  _16
REMARK    9  A    between atoms: _16  and  _17
REMARK   10  A    between atoms: _19  and  _21
REMARK   11  A    between atoms: _21  and  _22
REMARK   12  A    between atoms: _21  and  _24
REMARK   13  A    between atoms: _24  and  _25
REMARK   14  A    between atoms: _30  and  _31
REMARK   15  A    between atoms: _33  and  _35
REMARK   16  A    between atoms: _35  and  _36
REMARK   17  A    between atoms: _35  and  _38
REMARK   18  A    between atoms: _41  and  _43
REMARK   19  A    between atoms: _43  and  _44
REMARK   20  A    between atoms: _43  and  _46
REMARK   21  A    between atoms: _46  and  _47
REMARK   22  A    between atoms: _57  and  _59
REMARK   23  A    between atoms: _59  and  _60
REMARK   24  A    between atoms: _59  and  _62
REMARK   25  A    between atoms: _62  and  _63
REMARK   26  A    between atoms: _73  and  _75
REMARK   27  A    between atoms: _75  and  _76
REMARK   28  A    between atoms: _75  and  _78
REMARK   29  A    between atoms: _78  and  _79
REMARK   30  A    between atoms: _79  and  _80
REMARK   31  A    between atoms: _82  and  _84
REMARK   32  A    between atoms: _84  and  _85
REMARK   33  A    between atoms: _84  and  _87
REMARK   34  A    between atoms: _87  and  _88
REMARK   35  A    between atoms: _91  and  _93
REMARK   36  A    between atoms: _93  and  _94
REMARK   37  A    between atoms: _93  and  _96
REMARK   38  A    between atoms: _96  and  _97
REMARK   39  A    between atoms: _107  and  _109
REMARK   40  A    between atoms: _109  and  _110
REMARK   41  A    between atoms: _109  and  _112
REMARK   42  A    between atoms: _112  and  _113
REMARK   43  A    between atoms: _116  and  _118
REMARK   44  A    between atoms: _118  and  _119
REMARK   45  A    between atoms: _118  and  _121
REMARK   46  A    between atoms: _121  and  _122
REMARK   47  A    between atoms: _122  and  _123
REMARK   48  A    between atoms: _126  and  _128
REMARK   49  A    between atoms: _128  and  _129
REMARK   50  A    between atoms: _131  and  _133
REMARK   51  A    between atoms: _133  and  _134
REMARK   52  A    between atoms: _133  and  _136
REMARK   53  A    between atoms: _136  and  _137
REMARK   54  A    between atoms: _147  and  _149
REMARK   55  A    between atoms: _149  and  _150
REMARK   56  A    between atoms: _149  and  _152
REMARK   57  A    between atoms: _152  and  _153
REMARK   58  A    between atoms: _163  and  _165
REMARK   59  A    between atoms: _165  and  _166
REMARK   60  A    between atoms: _165  and  _168
REMARK   61  A    between atoms: _168  and  _169
REMARK   62  A    between atoms: _175  and  _177
REMARK   63  A    between atoms: _177  and  _178
REMARK   64  A    between atoms: _177  and  _180
REMARK   65  A    between atoms: _180  and  _181
REMARK   66  A    between atoms: _187  and  _189
REMARK   67  A    between atoms: _189  and  _190
REMARK   68  A    between atoms: _189  and  _192
REMARK   69  A    between atoms: _192  and  _193
REMARK   70  A    between atoms: _198  and  _200
REMARK   71  A    between atoms: _200  and  _201
REMARK   72  A    between atoms: _200  and  _203
REMARK   73  A    between atoms: _203  and  _204
REMARK   74  A    between atoms: _209  and  _211
REMARK   75  A    between atoms: _211  and  _212
REMARK   76  A    between atoms: _211  and  _214
REMARK   77  A    between atoms: _214  and  _215
REMARK   78  A    between atoms: _215  and  _216
REMARK   79  A    between atoms: _219  and  _221
REMARK   80  A    between atoms: _221  and  _222
REMARK   81  A    between atoms: _221  and  _224
REMARK   82  A    between atoms: _224  and  _225
REMARK   83  A    between atoms: _228  and  _230
REMARK   84  A    between atoms: _230  and  _231
REMARK   85  A    between atoms: _230  and  _233
REMARK   86  A    between atoms: _233  and  _234
REMARK   87  A    between atoms: _236  and  _238
REMARK   88  A    between atoms: _238  and  _239
REMARK   89  A    between atoms: _238  and  _241
REMARK   90  A    between atoms: _241  and  _242
REMARK   91  A    between atoms: _242  and  _243
REMARK   92  A    between atoms: _243  and  _244
REMARK   93  A    between atoms: _244  and  _245
REMARK   94  A    between atoms: _249  and  _251
REMARK   95  A    between atoms: _251  and  _252
REMARK   96  A    between atoms: _251  and  _254
REMARK   97  A    between atoms: _254  and  _255
REMARK   98  A    between atoms: _257  and  _259
REMARK   99  A    between atoms: _259  and  _260
REMARK  100  A    between atoms: _262  and  _264
REMARK  101  A    between atoms: _264  and  _265
REMARK  102  A    between atoms: _264  and  _267
REMARK  103  A    between atoms: _267  and  _268
REMARK  104  A    between atoms: _273  and  _274
REMARK  105  A    between atoms: _276  and  _278
REMARK  106  A    between atoms: _278  and  _279
REMARK  107  A    between atoms: _278  and  _281
REMARK  108  A    between atoms: _284  and  _286
REMARK  109  A    between atoms: _286  and  _287
REMARK  110  A    between atoms: _289  and  _291
REMARK  111  A    between atoms: _291  and  _292
REMARK  112  A    between atoms: _291  and  _294
REMARK  113  A    between atoms: _294  and  _295
REMARK  114  A    between atoms: _300  and  _302
REMARK  115  A    between atoms: _302  and  _303
REMARK  116  A    between atoms: _306  and  _308
REMARK  117  A    between atoms: _308  and  _309
REMARK  118  A    between atoms: _308  and  _311
REMARK  119  A    between atoms: _311  and  _312
REMARK  120  A    between atoms: _317  and  _319
REMARK  121  A    between atoms: _319  and  _320
REMARK  122  A    between atoms: _319  and  _322
REMARK  123  A    between atoms: _322  and  _323
REMARK  124  A    between atoms: _323  and  _324
REMARK  125  A    between atoms: _327  and  _329
REMARK  126  A    between atoms: _329  and  _330
REMARK  127  A    between atoms: _329  and  _332
REMARK  128  A    between atoms: _332  and  _333
REMARK  129  A    between atoms: _333  and  _334
REMARK  130  A    between atoms: _334  and  _335
REMARK  131  A    between atoms: _335  and  CA_419
REMARK  132  A    between atoms: _337  and  _339
REMARK  133  A    between atoms: _339  and  _340
REMARK  134  A    between atoms: _339  and  _342
REMARK  135  A    between atoms: _342  and  _343
REMARK  136  A    between atoms: _345  and  _347
REMARK  137  A    between atoms: _347  and  _348
REMARK  138  A    between atoms: _351  and  _353
REMARK  139  A    between atoms: _353  and  _354
REMARK  140  A    between atoms: _356  and  _358
REMARK  141  A    between atoms: _358  and  _359
REMARK  142  A    between atoms: _358  and  _361
REMARK  143  A    between atoms: _361  and  _362
REMARK  144  A    between atoms: _362  and  _363
REMARK  145  A    between atoms: _363  and  _365
REMARK  146  A    between atoms: _365  and  CA_419
REMARK  147  A    between atoms: _366  and  _368
REMARK  148  A    between atoms: _368  and  _369
REMARK  149  A    between atoms: _368  and  _371
REMARK  150  A    between atoms: _371  and  _372
REMARK  151  A    between atoms: _377  and  _378
REMARK  152  A    between atoms: _380  and  _382
REMARK  153  A    between atoms: _382  and  _383
REMARK  154  A    between atoms: _382  and  _385
REMARK  155  A    between atoms: _385  and  _386
REMARK  156  A    between atoms: _392  and  _394
REMARK  157  A    between atoms: _394  and  _395
REMARK  158  A    between atoms: _394  and  _397
REMARK  159  A    between atoms: _397  and  _398
REMARK  160  A    between atoms: _401  and  _403
REMARK  161  A    between atoms: _403  and  _404
REMARK  162  A    between atoms: _403  and  _406
REMARK  163  A    between atoms: _406  and  _407
REMARK  164  A    between atoms: _410  and  _412
REMARK  165  A    between atoms: _412  and  _413
REMARK  166  A    between atoms: _412  and  _415
REMARK  167  A    between atoms: _415  and  _416
REMARK  168  A    between atoms: _416  and  _417
REMARK                            x       y       z     vdW  Elec       q    Type
REMARK                         _______ _______ _______ _____ _____    ______ ____
ROOT
ATOM      1  CB  PHE A   1      27.807  51.620  74.971  0.00  0.00    +0.051 C 
ENDROOT
BRANCH   1   2
ATOM      2  CG  PHE A   1      27.656  50.305  74.243  0.00  0.00    -0.020 A 
ATOM      3  CD2 PHE A   1      26.387  49.776  73.993  0.00  0.00    -0.004 A 
ATOM      4  CE2 PHE A   1      26.233  48.590  73.300  0.00  0.00    -0.000 A 
ATOM      5  CZ  PHE A   1      27.346  47.929  72.852  0.00  0.00    -0.000 A 
ATOM      6  CE1 PHE A   1      28.595  48.461  73.083  0.00  0.00    -0.000 A 
ATOM      7  CD1 PHE A   1      28.746  49.635  73.749  0.00  0.00    -0.004 A 
ENDBRANCH   1   2
BRANCH   1   8
ATOM      8  CA  PHE A   1      29.027  51.709  75.913  0.00  0.00    +0.137 C 
BRANCH   8   9
ATOM      9  N   PHE A   1      29.031  50.615  76.875  0.00  0.00    -0.239 NA
ATOM     10  H   PHE A   1      28.210  50.489  77.500  0.00  0.00    +0.142 HD
ENDBRANCH   8   9
BRANCH   8  11
ATOM     11  C   PHE A   1      28.909  53.029  76.676  0.00  0.00    +0.224 C 
ATOM     12  O   PHE A   1      28.271  53.956  76.192  0.00  0.00    -0.287 OA
ENDBRANCH   8  11
ENDBRANCH   1   8
TORSDOF 4
REMARK  Name = ../refined-set-2016/2jkp/2jkp_pocket.pdb
REMARK  168 active torsions:
REMARK  status: ('A' for Active; 'I' for Inactive)
REMARK    1  A    between atoms: _1  and  _3
REMARK    2  A    between atoms: _3  and  _4
REMARK    3  A    between atoms: _3  and  _6
REMARK    4  A    between atoms: _6  and  _7
REMARK    5  A    between atoms: _7  and  _8
REMARK    6  A    between atoms: _11  and  _13
REMARK    7  A    between atoms: _13  and  _14
REMARK    8  A    between atoms: _13  and  _16
REMARK    9  A    between atoms: _16  and  _17
REMARK   10  A    between atoms: _19  and  _21
REMARK   11  A    between atoms: _21  and  _22
REMARK   12  A    between atoms: _21  and  _24
REMARK   13  A    between atoms: _24  and  _25
REMARK   14  A    between atoms: _30  and  _31
REMARK   15  A    between atoms: _33  and  _35
REMARK   16  A    between atoms: _35  and  _36
REMARK   17  A    between atoms: _35  and  _38
REMARK   18  A    between atoms: _41  and  _43
REMARK   19  A    between atoms: _43  and  _44
REMARK   20  A    between atoms: _43  and  _46
REMARK   21  A    between atoms: _46  and  _47
REMARK   22  A    between atoms: _57  and  _59
REMARK   23  A    between atoms: _59  and  _60
REMARK   24  A    between atoms: _59  and  _62
REMARK   25  A    between atoms: _62  and  _63
REMARK   26  A    between atoms: _73  and  _75
REMARK   27  A    between atoms: _75  and  _76
REMARK   28  A    between atoms: _75  and  _78
REMARK   29  A    between atoms: _78  and  _79
REMARK   30  A    between atoms: _79  and  _80
REMARK   31  A    between atoms: _82  and  _84
REMARK   32  A    between atoms: _84  and  _85
REMARK   33  A    between atoms: _84  and  _87
REMARK   34  A    between atoms: _87  and  _88
REMARK   35  A    between atoms: _91  and  _93
REMARK   36  A    between atoms: _93  and  _94
REMARK   37  A    between atoms: _93  and  _96
REMARK   38  A    between atoms: _96  and  _97
REMARK   39  A    between atoms: _107  and  _109
REMARK   40  A    between atoms: _109  and  _110
REMARK   41  A    between atoms: _109  and  _112
REMARK   42  A    between atoms: _112  and  _113
REMARK   43  A    between atoms: _116  and  _118
REMARK   44  A    between atoms: _118  and  _119
REMARK   45  A    between atoms: _118  and  _121
REMARK   46  A    between atoms: _121  and  _122
REMARK   47  A    between atoms: _122  and  _123
REMARK   48  A    between atoms: _126  and  _128
REMARK   49  A    between atoms: _128  and  _129
REMARK   50  A    between atoms: _131  and  _133
REMARK   51  A    between atoms: _133  and  _134
REMARK   52  A    between atoms: _133  and  _136
REMARK   53  A    between atoms: _136  and  _137
REMARK   54  A    between atoms: _147  and  _149
REMARK   55  A    between atoms: _149  and  _150
REMARK   56  A    between atoms: _149  and  _152
REMARK   57  A    between atoms: _152  and  _153
REMARK   58  A    between atoms: _163  and  _165
REMARK   59  A    between atoms: _165  and  _166
REMARK   60  A    between atoms: _165  and  _168
REMARK   61  A    between atoms: _168  and  _169
REMARK   62  A    between atoms: _175  and  _177
REMARK   63  A    between atoms: _177  and  _178
REMARK   64  A    between atoms: _177  and  _180
REMARK   65  A    between atoms: _180  and  _181
REMARK   66  A    between atoms: _187  and  _189
REMARK   67  A    between atoms: _189  and  _190
REMARK   68  A    between atoms: _189  and  _192
REMARK   69  A    between atoms: _192  and  _193
REMARK   70  A    between atoms: _198  and  _200
REMARK   71  A    between atoms: _200  and  _201
REMARK   72  A    between atoms: _200  and  _203
REMARK   73  A    between atoms: _203  and  _204
REMARK   74  A    between atoms: _209  and  _211
REMARK   75  A    between atoms: _211  and  _212
REMARK   76  A    between atoms: _211  and  _214
REMARK   77  A    between atoms: _214  and  _215
REMARK   78  A    between atoms: _215  and  _216
REMARK   79  A    between atoms: _219  and  _221
REMARK   80  A    between atoms: _221  and  _222
REMARK   81  A    between atoms: _221  and  _224
REMARK   82  A    between atoms: _224  and  _225
REMARK   83  A    between atoms: _228  and  _230
REMARK   84  A    between atoms: _230  and  _231
REMARK   85  A    between atoms: _230  and  _233
REMARK   86  A    between atoms: _233  and  _234
REMARK   87  A    between atoms: _236  and  _238
REMARK   88  A    between atoms: _238  and  _239
REMARK   89  A    between atoms: _238  and  _241
REMARK   90  A    between atoms: _241  and  _242
REMARK   91  A    between atoms: _242  and  _243
REMARK   92  A    between atoms: _243  and  _244
REMARK   93  A    between atoms: _244  and  _245
REMARK   94  A    between atoms: _249  and  _251
REMARK   95  A    between atoms: _251  and  _252
REMARK   96  A    between atoms: _251  and  _254
REMARK   97  A    between atoms: _254  and  _255
REMARK   98  A    between atoms: _257  and  _259
REMARK   99  A    between atoms: _259  and  _260
REMARK  100  A    between atoms: _262  and  _264
REMARK  101  A    between atoms: _264  and  _265
REMARK  102  A    between atoms: _264  and  _267
REMARK  103  A    between atoms: _267  and  _268
REMARK  104  A    between atoms: _273  and  _274
REMARK  105  A    between atoms: _276  and  _278
REMARK  106  A    between atoms: _278  and  _279
REMARK  107  A    between atoms: _278  and  _281
REMARK  108  A    between atoms: _284  and  _286
REMARK  109  A    between atoms: _286  and  _287
REMARK  110  A    between atoms: _289  and  _291
REMARK  111  A    between atoms: _291  and  _292
REMARK  112  A    between atoms: _291  and  _294
REMARK  113  A    between atoms: _294  and  _295
REMARK  114  A    between atoms: _300  and  _302
REMARK  115  A    between atoms: _302  and  _303
REMARK  116  A    between atoms: _306  and  _308
REMARK  117  A    between atoms: _308  and  _309
REMARK  118  A    between atoms: _308  and  _311
REMARK  119  A    between atoms: _311  and  _312
REMARK  120  A    between atoms: _317  and  _319
REMARK  121  A    between atoms: _319  and  _320
REMARK  122  A    between atoms: _319  and  _322
REMARK  123  A    between atoms: _322  and  _323
REMARK  124  A    between atoms: _323  and  _324
REMARK  125  A    between atoms: _327  and  _329
REMARK  126  A    between atoms: _329  and  _330
REMARK  127  A    between atoms: _329  and  _332
REMARK  128  A    between atoms: _332  and  _333
REMARK  129  A    between atoms: _333  and  _334
REMARK  130  A    between atoms: _334  and  _335
REMARK  131  A    between atoms: _335  and  CA_419
REMARK  132  A    between atoms: _337  and  _339
REMARK  133  A    between atoms: _339  and  _340
REMARK  134  A    between atoms: _339  and  _342
REMARK  135  A    between atoms: _342  and  _343
REMARK  136  A    between atoms: _345  and  _347
REMARK  137  A    between atoms: _347  and  _348
REMARK  138  A    between atoms: _351  and  _353
REMARK  139  A    between atoms: _353  and  _354
REMARK  140  A    between atoms: _356  and  _358
REMARK  141  A    between atoms: _358  and  _359
REMARK  142  A    between atoms: _358  and  _361
REMARK  143  A    between atoms: _361  and  _362
REMARK  144  A    between atoms: _362  and  _363
REMARK  145  A    between atoms: _363  and  _365
REMARK  146  A    between atoms: _365  and  CA_419
REMARK  147  A    between atoms: _366  and  _368
REMARK  148  A    between atoms: _368  and  _369
REMARK  149  A    between atoms: _368  and  _371
REMARK  150  A    between atoms: _371  and  _372
REMARK  151  A    between atoms: _377  and  _378
REMARK  152  A    between atoms: _380  and  _382
REMARK  153  A    between atoms: _382  and  _383
REMARK  154  A    between atoms: _382  and  _385
REMARK  155  A    between atoms: _385  and  _386
REMARK  156  A    between atoms: _392  and  _394
REMARK  157  A    between atoms: _394  and  _395
REMARK  158  A    between atoms: _394  and  _397
REMARK  159  A    between atoms: _397  and  _398
REMARK  160  A    between atoms: _401  and  _403
REMARK  161  A    between atoms: _403  and  _404
REMARK  162  A    between atoms: _403  and  _406
REMARK  163  A    between atoms: _406  and  _407
REMARK  164  A    between atoms: _410  and  _412
REMARK  165  A    between atoms: _412  and  _413
REMARK  166  A    between atoms: _412  and  _415
REMARK  167  A    between atoms: _415  and  _416
REMARK  168  A    between atoms: _416  and  _417
REMARK                            x       y       z     vdW  Elec       q    Type
REMARK                         _______ _______ _______ _____ _____    ______ ____
ROOT
ATOM      1  CA  ASP A   1      17.056  39.261  79.047  0.00  0.00    +0.144 C 
ENDROOT
BRANCH   1   2
ATOM      2  N   ASP A   1      15.749  39.940  79.108  0.00  0.00    -0.239 NA
ATOM      3  H   ASP A   1      15.340  40.346  78.242  0.00  0.00    +0.142 HD
ENDBRANCH   1   2
BRANCH   1   4
ATOM      4  C   ASP A   1      18.063  40.393  79.275  0.00  0.00    +0.225 C 
ATOM      5  O   ASP A   1      18.588  40.971  78.324  0.00  0.00    -0.287 OA
ENDBRANCH   1   4
BRANCH   1   6
ATOM      6  CB  ASP A   1      17.239  38.576  77.657  0.00  0.00    +0.139 C 
BRANCH   6   7
ATOM      7  CG  ASP A   1      18.655  37.957  77.431  0.00  0.00    +0.367 C 
ATOM      8  OD2 ASP A   1      19.160  37.241  78.329  0.00  0.00    -0.246 OA
ATOM      9  OD1 ASP A   1      19.260  38.134  76.319  0.00  0.00    -0.246 OA
ENDBRANCH   6   7
ENDBRANCH   1   6
TORSDOF 4
REMARK  Name = ../refined-set-2016/2jkp/2jkp_pocket.pdb
REMARK  168 active torsions:
REMARK  status: ('A' for Active; 'I' for Inactive)
REMARK    1  A    between atoms: _1  and  _3
REMARK    2  A    between atoms: _3  and  _4
REMARK    3  A    between atoms: _3  and  _6
REMARK    4  A    between atoms: _6  and  _7
REMARK    5  A    between atoms: _7  and  _8
REMARK    6  A    between atoms: _11  and  _13
REMARK    7  A    between atoms: _13  and  _14
REMARK    8  A    between atoms: _13  and  _16
REMARK    9  A    between atoms: _16  and  _17
REMARK   10  A    between atoms: _19  and  _21
REMARK   11  A    between atoms: _21  and  _22
REMARK   12  A    between atoms: _21  and  _24
REMARK   13  A    between atoms: _24  and  _25
REMARK   14  A    between atoms: _30  and  _31
REMARK   15  A    between atoms: _33  and  _35
REMARK   16  A    between atoms: _35  and  _36
REMARK   17  A    between atoms: _35  and  _38
REMARK   18  A    between atoms: _41  and  _43
REMARK   19  A    between atoms: _43  and  _44
REMARK   20  A    between atoms: _43  and  _46
REMARK   21  A    between atoms: _46  and  _47
REMARK   22  A    between atoms: _57  and  _59
REMARK   23  A    between atoms: _59  and  _60
REMARK   24  A    between atoms: _59  and  _62
REMARK   25  A    between atoms: _62  and  _63
REMARK   26  A    between atoms: _73  and  _75
REMARK   27  A    between atoms: _75  and  _76
REMARK   28  A    between atoms: _75  and  _78
REMARK   29  A    between atoms: _78  and  _79
REMARK   30  A    between atoms: _79  and  _80
REMARK   31  A    between atoms: _82  and  _84
REMARK   32  A    between atoms: _84  and  _85
REMARK   33  A    between atoms: _84  and  _87
REMARK   34  A    between atoms: _87  and  _88
REMARK   35  A    between atoms: _91  and  _93
REMARK   36  A    between atoms: _93  and  _94
REMARK   37  A    between atoms: _93  and  _96
REMARK   38  A    between atoms: _96  and  _97
REMARK   39  A    between atoms: _107  and  _109
REMARK   40  A    between atoms: _109  and  _110
REMARK   41  A    between atoms: _109  and  _112
REMARK   42  A    between atoms: _112  and  _113
REMARK   43  A    between atoms: _116  and  _118
REMARK   44  A    between atoms: _118  and  _119
REMARK   45  A    between atoms: _118  and  _121
REMARK   46  A    between atoms: _121  and  _122
REMARK   47  A    between atoms: _122  and  _123
REMARK   48  A    between atoms: _126  and  _128
REMARK   49  A    between atoms: _128  and  _129
REMARK   50  A    between atoms: _131  and  _133
REMARK   51  A    between atoms: _133  and  _134
REMARK   52  A    between atoms: _133  and  _136
REMARK   53  A    between atoms: _136  and  _137
REMARK   54  A    between atoms: _147  and  _149
REMARK   55  A    between atoms: _149  and  _150
REMARK   56  A    between atoms: _149  and  _152
REMARK   57  A    between atoms: _152  and  _153
REMARK   58  A    between atoms: _163  and  _165
REMARK   59  A    between atoms: _165  and  _166
REMARK   60  A    between atoms: _165  and  _168
REMARK   61  A    between atoms: _168  and  _169
REMARK   62  A    between atoms: _175  and  _177
REMARK   63  A    between atoms: _177  and  _178
REMARK   64  A    between atoms: _177  and  _180
REMARK   65  A    between atoms: _180  and  _181
REMARK   66  A    between atoms: _187  and  _189
REMARK   67  A    between atoms: _189  and  _190
REMARK   68  A    between atoms: _189  and  _192
REMARK   69  A    between atoms: _192  and  _193
REMARK   70  A    between atoms: _198  and  _200
REMARK   71  A    between atoms: _200  and  _201
REMARK   72  A    between atoms: _200  and  _203
REMARK   73  A    between atoms: _203  and  _204
REMARK   74  A    between atoms: _209  and  _211
REMARK   75  A    between atoms: _211  and  _212
REMARK   76  A    between atoms: _211  and  _214
REMARK   77  A    between atoms: _214  and  _215
REMARK   78  A    between atoms: _215  and  _216
REMARK   79  A    between atoms: _219  and  _221
REMARK   80  A    between atoms: _221  and  _222
REMARK   81  A    between atoms: _221  and  _224
REMARK   82  A    between atoms: _224  and  _225
REMARK   83  A    between atoms: _228  and  _230
REMARK   84  A    between atoms: _230  and  _231
REMARK   85  A    between atoms: _230  and  _233
REMARK   86  A    between atoms: _233  and  _234
REMARK   87  A    between atoms: _236  and  _238
REMARK   88  A    between atoms: _238  and  _239
REMARK   89  A    between atoms: _238  and  _241
REMARK   90  A    between atoms: _241  and  _242
REMARK   91  A    between atoms: _242  and  _243
REMARK   92  A    between atoms: _243  and  _244
REMARK   93  A    between atoms: _244  and  _245
REMARK   94  A    between atoms: _249  and  _251
REMARK   95  A    between atoms: _251  and  _252
REMARK   96  A    between atoms: _251  and  _254
REMARK   97  A    between atoms: _254  and  _255
REMARK   98  A    between atoms: _257  and  _259
REMARK   99  A    between atoms: _259  and  _260
REMARK  100  A    between atoms: _262  and  _264
REMARK  101  A    between atoms: _264  and  _265
REMARK  102  A    between atoms: _264  and  _267
REMARK  103  A    between atoms: _267  and  _268
REMARK  104  A    between atoms: _273  and  _274
REMARK  105  A    between atoms: _276  and  _278
REMARK  106  A    between atoms: _278  and  _279
REMARK  107  A    between atoms: _278  and  _281
REMARK  108  A    between atoms: _284  and  _286
REMARK  109  A    between atoms: _286  and  _287
REMARK  110  A    between atoms: _289  and  _291
REMARK  111  A    between atoms: _291  and  _292
REMARK  112  A    between atoms: _291  and  _294
REMARK  113  A    between atoms: _294  and  _295
REMARK  114  A    between atoms: _300  and  _302
REMARK  115  A    between atoms: _302  and  _303
REMARK  116  A    between atoms: _306  and  _308
REMARK  117  A    between atoms: _308  and  _309
REMARK  118  A    between atoms: _308  and  _311
REMARK  119  A    between atoms: _311  and  _312
REMARK  120  A    between atoms: _317  and  _319
REMARK  121  A    between atoms: _319  and  _320
REMARK  122  A    between atoms: _319  and  _322
REMARK  123  A    between atoms: _322  and  _323
REMARK  124  A    between atoms: _323  and  _324
REMARK  125  A    between atoms: _327  and  _329
REMARK  126  A    between atoms: _329  and  _330
REMARK  127  A    between atoms: _329  and  _332
REMARK  128  A    between atoms: _332  and  _333
REMARK  129  A    between atoms: _333  and  _334
REMARK  130  A    between atoms: _334  and  _335
REMARK  131  A    between atoms: _335  and  CA_419
REMARK  132  A    between atoms: _337  and  _339
REMARK  133  A    between atoms: _339  and  _340
REMARK  134  A    between atoms: _339  and  _342
REMARK  135  A    between atoms: _342  and  _343
REMARK  136  A    between atoms: _345  and  _347
REMARK  137  A    between atoms: _347  and  _348
REMARK  138  A    between atoms: _351  and  _353
REMARK  139  A    between atoms: _353  and  _354
REMARK  140  A    between atoms: _356  and  _358
REMARK  141  A    between atoms: _358  and  _359
REMARK  142  A    between atoms: _358  and  _361
REMARK  143  A    between atoms: _361  and  _362
REMARK  144  A    between atoms: _362  and  _363
REMARK  145  A    between atoms: _363  and  _365
REMARK  146  A    between atoms: _365  and  CA_419
REMARK  147  A    between atoms: _366  and  _368
REMARK  148  A    between atoms: _368  and  _369
REMARK  149  A    between atoms: _368  and  _371
REMARK  150  A    between atoms: _371  and  _372
REMARK  151  A    between atoms: _377  and  _378
REMARK  152  A    between atoms: _380  and  _382
REMARK  153  A    between atoms: _382  and  _383
REMARK  154  A    between atoms: _382  and  _385
REMARK  155  A    between atoms: _385  and  _386
REMARK  156  A    between atoms: _392  and  _394
REMARK  157  A    between atoms: _394  and  _395
REMARK  158  A    between atoms: _394  and  _397
REMARK  159  A    between atoms: _397  and  _398
REMARK  160  A    between atoms: _401  and  _403
REMARK  161  A    between atoms: _403  and  _404
REMARK  162  A    between atoms: _403  and  _406
REMARK  163  A    between atoms: _406  and  _407
REMARK  164  A    between atoms: _410  and  _412
REMARK  165  A    between atoms: _412  and  _413
REMARK  166  A    between atoms: _412  and  _415
REMARK  167  A    between atoms: _415  and  _416
REMARK  168  A    between atoms: _416  and  _417
REMARK                            x       y       z     vdW  Elec       q    Type
REMARK                         _______ _______ _______ _____ _____    ______ ____
ROOT
ATOM      1  CA  THR A   1      22.324  39.672  80.806  0.00  0.00    +0.160 C 
ENDROOT
BRANCH   1   2
ATOM      2  N   THR A   1      20.940  40.229  80.797  0.00  0.00    -0.237 NA
ATOM      3  H   THR A   1      20.154  39.553  80.713  0.00  0.00    +0.142 HD
ENDBRANCH   1   2
BRANCH   1   4
ATOM      4  C   THR A   1      23.223  40.164  81.986  0.00  0.00    +0.227 C 
ATOM      5  O   THR A   1      24.315  40.684  81.778  0.00  0.00    -0.287 OA
ENDBRANCH   1   4
BRANCH   1   6
ATOM      6  CB  THR A   1      23.073  39.863  79.443  0.00  0.00    +0.134 C 
ATOM      7  CG2 THR A   1      22.164  39.532  78.274  0.00  0.00    +0.034 C 
BRANCH   6   8
ATOM      8  OG1 THR A   1      23.542  41.211  79.337  0.00  0.00    -0.383 OA
ATOM      9  HG1 THR A   1      22.772  41.831  79.379  0.00  0.00    +0.210 HD
ENDBRANCH   6   8
ENDBRANCH   1   6
TORSDOF 4
REMARK  Name = ../refined-set-2016/2jkp/2jkp_pocket.pdb
REMARK  168 active torsions:
REMARK  status: ('A' for Active; 'I' for Inactive)
REMARK    1  A    between atoms: _1  and  _3
REMARK    2  A    between atoms: _3  and  _4
REMARK    3  A    between atoms: _3  and  _6
REMARK    4  A    between atoms: _6  and  _7
REMARK    5  A    between atoms: _7  and  _8
REMARK    6  A    between atoms: _11  and  _13
REMARK    7  A    between atoms: _13  and  _14
REMARK    8  A    between atoms: _13  and  _16
REMARK    9  A    between atoms: _16  and  _17
REMARK   10  A    between atoms: _19  and  _21
REMARK   11  A    between atoms: _21  and  _22
REMARK   12  A    between atoms: _21  and  _24
REMARK   13  A    between atoms: _24  and  _25
REMARK   14  A    between atoms: _30  and  _31
REMARK   15  A    between atoms: _33  and  _35
REMARK   16  A    between atoms: _35  and  _36
REMARK   17  A    between atoms: _35  and  _38
REMARK   18  A    between atoms: _41  and  _43
REMARK   19  A    between atoms: _43  and  _44
REMARK   20  A    between atoms: _43  and  _46
REMARK   21  A    between atoms: _46  and  _47
REMARK   22  A    between atoms: _57  and  _59
REMARK   23  A    between atoms: _59  and  _60
REMARK   24  A    between atoms: _59  and  _62
REMARK   25  A    between atoms: _62  and  _63
REMARK   26  A    between atoms: _73  and  _75
REMARK   27  A    between atoms: _75  and  _76
REMARK   28  A    between atoms: _75  and  _78
REMARK   29  A    between atoms: _78  and  _79
REMARK   30  A    between atoms: _79  and  _80
REMARK   31  A    between atoms: _82  and  _84
REMARK   32  A    between atoms: _84  and  _85
REMARK   33  A    between atoms: _84  and  _87
REMARK   34  A    between atoms: _87  and  _88
REMARK   35  A    between atoms: _91  and  _93
REMARK   36  A    between atoms: _93  and  _94
REMARK   37  A    between atoms: _93  and  _96
REMARK   38  A    between atoms: _96  and  _97
REMARK   39  A    between atoms: _107  and  _109
REMARK   40  A    between atoms: _109  and  _110
REMARK   41  A    between atoms: _109  and  _112
REMARK   42  A    between atoms: _112  and  _113
REMARK   43  A    between atoms: _116  and  _118
REMARK   44  A    between atoms: _118  and  _119
REMARK   45  A    between atoms: _118  and  _121
REMARK   46  A    between atoms: _121  and  _122
REMARK   47  A    between atoms: _122  and  _123
REMARK   48  A    between atoms: _126  and  _128
REMARK   49  A    between atoms: _128  and  _129
REMARK   50  A    between atoms: _131  and  _133
REMARK   51  A    between atoms: _133  and  _134
REMARK   52  A    between atoms: _133  and  _136
REMARK   53  A    between atoms: _136  and  _137
REMARK   54  A    between atoms: _147  and  _149
REMARK   55  A    between atoms: _149  and  _150
REMARK   56  A    between atoms: _149  and  _152
REMARK   57  A    between atoms: _152  and  _153
REMARK   58  A    between atoms: _163  and  _165
REMARK   59  A    between atoms: _165  and  _166
REMARK   60  A    between atoms: _165  and  _168
REMARK   61  A    between atoms: _168  and  _169
REMARK   62  A    between atoms: _175  and  _177
REMARK   63  A    between atoms: _177  and  _178
REMARK   64  A    between atoms: _177  and  _180
REMARK   65  A    between atoms: _180  and  _181
REMARK   66  A    between atoms: _187  and  _189
REMARK   67  A    between atoms: _189  and  _190
REMARK   68  A    between atoms: _189  and  _192
REMARK   69  A    between atoms: _192  and  _193
REMARK   70  A    between atoms: _198  and  _200
REMARK   71  A    between atoms: _200  and  _201
REMARK   72  A    between atoms: _200  and  _203
REMARK   73  A    between atoms: _203  and  _204
REMARK   74  A    between atoms: _209  and  _211
REMARK   75  A    between atoms: _211  and  _212
REMARK   76  A    between atoms: _211  and  _214
REMARK   77  A    between atoms: _214  and  _215
REMARK   78  A    between atoms: _215  and  _216
REMARK   79  A    between atoms: _219  and  _221
REMARK   80  A    between atoms: _221  and  _222
REMARK   81  A    between atoms: _221  and  _224
REMARK   82  A    between atoms: _224  and  _225
REMARK   83  A    between atoms: _228  and  _230
REMARK   84  A    between atoms: _230  and  _231
REMARK   85  A    between atoms: _230  and  _233
REMARK   86  A    between atoms: _233  and  _234
REMARK   87  A    between atoms: _236  and  _238
REMARK   88  A    between atoms: _238  and  _239
REMARK   89  A    between atoms: _238  and  _241
REMARK   90  A    between atoms: _241  and  _242
REMARK   91  A    between atoms: _242  and  _243
REMARK   92  A    between atoms: _243  and  _244
REMARK   93  A    between atoms: _244  and  _245
REMARK   94  A    between atoms: _249  and  _251
REMARK   95  A    between atoms: _251  and  _252
REMARK   96  A    between atoms: _251  and  _254
REMARK   97  A    between atoms: _254  and  _255
REMARK   98  A    between atoms: _257  and  _259
REMARK   99  A    between atoms: _259  and  _260
REMARK  100  A    between atoms: _262  and  _264
REMARK  101  A    between atoms: _264  and  _265
REMARK  102  A    between atoms: _264  and  _267
REMARK  103  A    between atoms: _267  and  _268
REMARK  104  A    between atoms: _273  and  _274
REMARK  105  A    between atoms: _276  and  _278
REMARK  106  A    between atoms: _278  and  _279
REMARK  107  A    between atoms: _278  and  _281
REMARK  108  A    between atoms: _284  and  _286
REMARK  109  A    between atoms: _286  and  _287
REMARK  110  A    between atoms: _289  and  _291
REMARK  111  A    between atoms: _291  and  _292
REMARK  112  A    between atoms: _291  and  _294
REMARK  113  A    between atoms: _294  and  _295
REMARK  114  A    between atoms: _300  and  _302
REMARK  115  A    between atoms: _302  and  _303
REMARK  116  A    between atoms: _306  and  _308
REMARK  117  A    between atoms: _308  and  _309
REMARK  118  A    between atoms: _308  and  _311
REMARK  119  A    between atoms: _311  and  _312
REMARK  120  A    between atoms: _317  and  _319
REMARK  121  A    between atoms: _319  and  _320
REMARK  122  A    between atoms: _319  and  _322
REMARK  123  A    between atoms: _322  and  _323
REMARK  124  A    between atoms: _323  and  _324
REMARK  125  A    between atoms: _327  and  _329
REMARK  126  A    between atoms: _329  and  _330
REMARK  127  A    between atoms: _329  and  _332
REMARK  128  A    between atoms: _332  and  _333
REMARK  129  A    between atoms: _333  and  _334
REMARK  130  A    between atoms: _334  and  _335
REMARK  131  A    between atoms: _335  and  CA_419
REMARK  132  A    between atoms: _337  and  _339
REMARK  133  A    between atoms: _339  and  _340
REMARK  134  A    between atoms: _339  and  _342
REMARK  135  A    between atoms: _342  and  _343
REMARK  136  A    between atoms: _345  and  _347
REMARK  137  A    between atoms: _347  and  _348
REMARK  138  A    between atoms: _351  and  _353
REMARK  139  A    between atoms: _353  and  _354
REMARK  140  A    between atoms: _356  and  _358
REMARK  141  A    between atoms: _358  and  _359
REMARK  142  A    between atoms: _358  and  _361
REMARK  143  A    between atoms: _361  and  _362
REMARK  144  A    between atoms: _362  and  _363
REMARK  145  A    between atoms: _363  and  _365
REMARK  146  A    between atoms: _365  and  CA_419
REMARK  147  A    between atoms: _366  and  _368
REMARK  148  A    between atoms: _368  and  _369
REMARK  149  A    between atoms: _368  and  _371
REMARK  150  A    between atoms: _371  and  _372
REMARK  151  A    between atoms: _377  and  _378
REMARK  152  A    between atoms: _380  and  _382
REMARK  153  A    between atoms: _382  and  _383
REMARK  154  A    between atoms: _382  and  _385
REMARK  155  A    between atoms: _385  and  _386
REMARK  156  A    between atoms: _392  and  _394
REMARK  157  A    between atoms: _394  and  _395
REMARK  158  A    between atoms: _394  and  _397
REMARK  159  A    between atoms: _397  and  _398
REMARK  160  A    between atoms: _401  and  _403
REMARK  161  A    between atoms: _403  and  _404
REMARK  162  A    between atoms: _403  and  _406
REMARK  163  A    between atoms: _406  and  _407
REMARK  164  A    between atoms: _410  and  _412
REMARK  165  A    between atoms: _412  and  _413
REMARK  166  A    between atoms: _412  and  _415
REMARK  167  A    between atoms: _415  and  _416
REMARK  168  A    between atoms: _416  and  _417
REMARK                            x       y       z     vdW  Elec       q    Type
REMARK                         _______ _______ _______ _____ _____    ______ ____
ROOT
ATOM      1  CA  MET A   1      22.610  34.761  81.411  0.00  0.00    +0.134 C 
ENDROOT
BRANCH   1   2
ATOM      2  N   MET A   1      21.238  34.989  81.859  0.00  0.00    -0.239 NA
ATOM      3  H   MET A   1      20.820  35.940  81.821  0.00  0.00    +0.142 HD
ENDBRANCH   1   2
BRANCH   1   4
ATOM      4  C   MET A   1      23.604  35.085  82.544  0.00  0.00    +0.224 C 
ATOM      5  O   MET A   1      23.344  35.960  83.346  0.00  0.00    -0.287 OA
ENDBRANCH   1   4
BRANCH   1   6
ATOM      6  CB  MET A   1      22.938  35.690  80.279  0.00  0.00    +0.037 C 
BRANCH   6   7
ATOM      7  CG  MET A   1      24.202  35.315  79.523  0.00  0.00    +0.059 C 
BRANCH   7   8
ATOM      8  SD  MET A   1      24.416  36.526  78.201  0.00  0.00    -0.139 S 
ATOM      9  CE  MET A   1      25.794  35.875  77.271  0.00  0.00    +0.069 C 
ENDBRANCH   7   8
ENDBRANCH   6   7
ENDBRANCH   1   6
TORSDOF 5
REMARK  Name = ../refined-set-2016/2jkp/2jkp_pocket.pdb
REMARK  168 active torsions:
REMARK  status: ('A' for Active; 'I' for Inactive)
REMARK    1  A    between atoms: _1  and  _3
REMARK    2  A    between atoms: _3  and  _4
REMARK    3  A    between atoms: _3  and  _6
REMARK    4  A    between atoms: _6  and  _7
REMARK    5  A    between atoms: _7  and  _8
REMARK    6  A    between atoms: _11  and  _13
REMARK    7  A    between atoms: _13  and  _14
REMARK    8  A    between atoms: _13  and  _16
REMARK    9  A    between atoms: _16  and  _17
REMARK   10  A    between atoms: _19  and  _21
REMARK   11  A    between atoms: _21  and  _22
REMARK   12  A    between atoms: _21  and  _24
REMARK   13  A    between atoms: _24  and  _25
REMARK   14  A    between atoms: _30  and  _31
REMARK   15  A    between atoms: _33  and  _35
REMARK   16  A    between atoms: _35  and  _36
REMARK   17  A    between atoms: _35  and  _38
REMARK   18  A    between atoms: _41  and  _43
REMARK   19  A    between atoms: _43  and  _44
REMARK   20  A    between atoms: _43  and  _46
REMARK   21  A    between atoms: _46  and  _47
REMARK   22  A    between atoms: _57  and  _59
REMARK   23  A    between atoms: _59  and  _60
REMARK   24  A    between atoms: _59  and  _62
REMARK   25  A    between atoms: _62  and  _63
REMARK   26  A    between atoms: _73  and  _75
REMARK   27  A    between atoms: _75  and  _76
REMARK   28  A    between atoms: _75  and  _78
REMARK   29  A    between atoms: _78  and  _79
REMARK   30  A    between atoms: _79  and  _80
REMARK   31  A    between atoms: _82  and  _84
REMARK   32  A    between atoms: _84  and  _85
REMARK   33  A    between atoms: _84  and  _87
REMARK   34  A    between atoms: _87  and  _88
REMARK   35  A    between atoms: _91  and  _93
REMARK   36  A    between atoms: _93  and  _94
REMARK   37  A    between atoms: _93  and  _96
REMARK   38  A    between atoms: _96  and  _97
REMARK   39  A    between atoms: _107  and  _109
REMARK   40  A    between atoms: _109  and  _110
REMARK   41  A    between atoms: _109  and  _112
REMARK   42  A    between atoms: _112  and  _113
REMARK   43  A    between atoms: _116  and  _118
REMARK   44  A    between atoms: _118  and  _119
REMARK   45  A    between atoms: _118  and  _121
REMARK   46  A    between atoms: _121  and  _122
REMARK   47  A    between atoms: _122  and  _123
REMARK   48  A    between atoms: _126  and  _128
REMARK   49  A    between atoms: _128  and  _129
REMARK   50  A    between atoms: _131  and  _133
REMARK   51  A    between atoms: _133  and  _134
REMARK   52  A    between atoms: _133  and  _136
REMARK   53  A    between atoms: _136  and  _137
REMARK   54  A    between atoms: _147  and  _149
REMARK   55  A    between atoms: _149  and  _150
REMARK   56  A    between atoms: _149  and  _152
REMARK   57  A    between atoms: _152  and  _153
REMARK   58  A    between atoms: _163  and  _165
REMARK   59  A    between atoms: _165  and  _166
REMARK   60  A    between atoms: _165  and  _168
REMARK   61  A    between atoms: _168  and  _169
REMARK   62  A    between atoms: _175  and  _177
REMARK   63  A    between atoms: _177  and  _178
REMARK   64  A    between atoms: _177  and  _180
REMARK   65  A    between atoms: _180  and  _181
REMARK   66  A    between atoms: _187  and  _189
REMARK   67  A    between atoms: _189  and  _190
REMARK   68  A    between atoms: _189  and  _192
REMARK   69  A    between atoms: _192  and  _193
REMARK   70  A    between atoms: _198  and  _200
REMARK   71  A    between atoms: _200  and  _201
REMARK   72  A    between atoms: _200  and  _203
REMARK   73  A    between atoms: _203  and  _204
REMARK   74  A    between atoms: _209  and  _211
REMARK   75  A    between atoms: _211  and  _212
REMARK   76  A    between atoms: _211  and  _214
REMARK   77  A    between atoms: _214  and  _215
REMARK   78  A    between atoms: _215  and  _216
REMARK   79  A    between atoms: _219  and  _221
REMARK   80  A    between atoms: _221  and  _222
REMARK   81  A    between atoms: _221  and  _224
REMARK   82  A    between atoms: _224  and  _225
REMARK   83  A    between atoms: _228  and  _230
REMARK   84  A    between atoms: _230  and  _231
REMARK   85  A    between atoms: _230  and  _233
REMARK   86  A    between atoms: _233  and  _234
REMARK   87  A    between atoms: _236  and  _238
REMARK   88  A    between atoms: _238  and  _239
REMARK   89  A    between atoms: _238  and  _241
REMARK   90  A    between atoms: _241  and  _242
REMARK   91  A    between atoms: _242  and  _243
REMARK   92  A    between atoms: _243  and  _244
REMARK   93  A    between atoms: _244  and  _245
REMARK   94  A    between atoms: _249  and  _251
REMARK   95  A    between atoms: _251  and  _252
REMARK   96  A    between atoms: _251  and  _254
REMARK   97  A    between atoms: _254  and  _255
REMARK   98  A    between atoms: _257  and  _259
REMARK   99  A    between atoms: _259  and  _260
REMARK  100  A    between atoms: _262  and  _264
REMARK  101  A    between atoms: _264  and  _265
REMARK  102  A    between atoms: _264  and  _267
REMARK  103  A    between atoms: _267  and  _268
REMARK  104  A    between atoms: _273  and  _274
REMARK  105  A    between atoms: _276  and  _278
REMARK  106  A    between atoms: _278  and  _279
REMARK  107  A    between atoms: _278  and  _281
REMARK  108  A    between atoms: _284  and  _286
REMARK  109  A    between atoms: _286  and  _287
REMARK  110  A    between atoms: _289  and  _291
REMARK  111  A    between atoms: _291  and  _292
REMARK  112  A    between atoms: _291  and  _294
REMARK  113  A    between atoms: _294  and  _295
REMARK  114  A    between atoms: _300  and  _302
REMARK  115  A    between atoms: _302  and  _303
REMARK  116  A    between atoms: _306  and  _308
REMARK  117  A    between atoms: _308  and  _309
REMARK  118  A    between atoms: _308  and  _311
REMARK  119  A    between atoms: _311  and  _312
REMARK  120  A    between atoms: _317  and  _319
REMARK  121  A    between atoms: _319  and  _320
REMARK  122  A    between atoms: _319  and  _322
REMARK  123  A    between atoms: _322  and  _323
REMARK  124  A    between atoms: _323  and  _324
REMARK  125  A    between atoms: _327  and  _329
REMARK  126  A    between atoms: _329  and  _330
REMARK  127  A    between atoms: _329  and  _332
REMARK  128  A    between atoms: _332  and  _333
REMARK  129  A    between atoms: _333  and  _334
REMARK  130  A    between atoms: _334  and  _335
REMARK  131  A    between atoms: _335  and  CA_419
REMARK  132  A    between atoms: _337  and  _339
REMARK  133  A    between atoms: _339  and  _340
REMARK  134  A    between atoms: _339  and  _342
REMARK  135  A    between atoms: _342  and  _343
REMARK  136  A    between atoms: _345  and  _347
REMARK  137  A    between atoms: _347  and  _348
REMARK  138  A    between atoms: _351  and  _353
REMARK  139  A    between atoms: _353  and  _354
REMARK  140  A    between atoms: _356  and  _358
REMARK  141  A    between atoms: _358  and  _359
REMARK  142  A    between atoms: _358  and  _361
REMARK  143  A    between atoms: _361  and  _362
REMARK  144  A    between atoms: _362  and  _363
REMARK  145  A    between atoms: _363  and  _365
REMARK  146  A    between atoms: _365  and  CA_419
REMARK  147  A    between atoms: _366  and  _368
REMARK  148  A    between atoms: _368  and  _369
REMARK  149  A    between atoms: _368  and  _371
REMARK  150  A    between atoms: _371  and  _372
REMARK  151  A    between atoms: _377  and  _378
REMARK  152  A    between atoms: _380  and  _382
REMARK  153  A    between atoms: _382  and  _383
REMARK  154  A    between atoms: _382  and  _385
REMARK  155  A    between atoms: _385  and  _386
REMARK  156  A    between atoms: _392  and  _394
REMARK  157  A    between atoms: _394  and  _395
REMARK  158  A    between atoms: _394  and  _397
REMARK  159  A    between atoms: _397  and  _398
REMARK  160  A    between atoms: _401  and  _403
REMARK  161  A    between atoms: _403  and  _404
REMARK  162  A    between atoms: _403  and  _406
REMARK  163  A    between atoms: _406  and  _407
REMARK  164  A    between atoms: _410  and  _412
REMARK  165  A    between atoms: _412  and  _413
REMARK  166  A    between atoms: _412  and  _415
REMARK  167  A    between atoms: _415  and  _416
REMARK  168  A    between atoms: _416  and  _417
REMARK                            x       y       z     vdW  Elec       q    Type
REMARK                         _______ _______ _______ _____ _____    ______ ____
ROOT
ATOM      1  O   HOH     1      17.134  49.850  69.938  0.00  0.00    +0.000 OA
ENDROOT
TORSDOF 0
REMARK  Name = ../refined-set-2016/2jkp/2jkp_pocket.pdb
REMARK  168 active torsions:
REMARK  status: ('A' for Active; 'I' for Inactive)
REMARK    1  A    between atoms: _1  and  _3
REMARK    2  A    between atoms: _3  and  _4
REMARK    3  A    between atoms: _3  and  _6
REMARK    4  A    between atoms: _6  and  _7
REMARK    5  A    between atoms: _7  and  _8
REMARK    6  A    between atoms: _11  and  _13
REMARK    7  A    between atoms: _13  and  _14
REMARK    8  A    between atoms: _13  and  _16
REMARK    9  A    between atoms: _16  and  _17
REMARK   10  A    between atoms: _19  and  _21
REMARK   11  A    between atoms: _21  and  _22
REMARK   12  A    between atoms: _21  and  _24
REMARK   13  A    between atoms: _24  and  _25
REMARK   14  A    between atoms: _30  and  _31
REMARK   15  A    between atoms: _33  and  _35
REMARK   16  A    between atoms: _35  and  _36
REMARK   17  A    between atoms: _35  and  _38
REMARK   18  A    between atoms: _41  and  _43
REMARK   19  A    between atoms: _43  and  _44
REMARK   20  A    between atoms: _43  and  _46
REMARK   21  A    between atoms: _46  and  _47
REMARK   22  A    between atoms: _57  and  _59
REMARK   23  A    between atoms: _59  and  _60
REMARK   24  A    between atoms: _59  and  _62
REMARK   25  A    between atoms: _62  and  _63
REMARK   26  A    between atoms: _73  and  _75
REMARK   27  A    between atoms: _75  and  _76
REMARK   28  A    between atoms: _75  and  _78
REMARK   29  A    between atoms: _78  and  _79
REMARK   30  A    between atoms: _79  and  _80
REMARK   31  A    between atoms: _82  and  _84
REMARK   32  A    between atoms: _84  and  _85
REMARK   33  A    between atoms: _84  and  _87
REMARK   34  A    between atoms: _87  and  _88
REMARK   35  A    between atoms: _91  and  _93
REMARK   36  A    between atoms: _93  and  _94
REMARK   37  A    between atoms: _93  and  _96
REMARK   38  A    between atoms: _96  and  _97
REMARK   39  A    between atoms: _107  and  _109
REMARK   40  A    between atoms: _109  and  _110
REMARK   41  A    between atoms: _109  and  _112
REMARK   42  A    between atoms: _112  and  _113
REMARK   43  A    between atoms: _116  and  _118
REMARK   44  A    between atoms: _118  and  _119
REMARK   45  A    between atoms: _118  and  _121
REMARK   46  A    between atoms: _121  and  _122
REMARK   47  A    between atoms: _122  and  _123
REMARK   48  A    between atoms: _126  and  _128
REMARK   49  A    between atoms: _128  and  _129
REMARK   50  A    between atoms: _131  and  _133
REMARK   51  A    between atoms: _133  and  _134
REMARK   52  A    between atoms: _133  and  _136
REMARK   53  A    between atoms: _136  and  _137
REMARK   54  A    between atoms: _147  and  _149
REMARK   55  A    between atoms: _149  and  _150
REMARK   56  A    between atoms: _149  and  _152
REMARK   57  A    between atoms: _152  and  _153
REMARK   58  A    between atoms: _163  and  _165
REMARK   59  A    between atoms: _165  and  _166
REMARK   60  A    between atoms: _165  and  _168
REMARK   61  A    between atoms: _168  and  _169
REMARK   62  A    between atoms: _175  and  _177
REMARK   63  A    between atoms: _177  and  _178
REMARK   64  A    between atoms: _177  and  _180
REMARK   65  A    between atoms: _180  and  _181
REMARK   66  A    between atoms: _187  and  _189
REMARK   67  A    between atoms: _189  and  _190
REMARK   68  A    between atoms: _189  and  _192
REMARK   69  A    between atoms: _192  and  _193
REMARK   70  A    between atoms: _198  and  _200
REMARK   71  A    between atoms: _200  and  _201
REMARK   72  A    between atoms: _200  and  _203
REMARK   73  A    between atoms: _203  and  _204
REMARK   74  A    between atoms: _209  and  _211
REMARK   75  A    between atoms: _211  and  _212
REMARK   76  A    between atoms: _211  and  _214
REMARK   77  A    between atoms: _214  and  _215
REMARK   78  A    between atoms: _215  and  _216
REMARK   79  A    between atoms: _219  and  _221
REMARK   80  A    between atoms: _221  and  _222
REMARK   81  A    between atoms: _221  and  _224
REMARK   82  A    between atoms: _224  and  _225
REMARK   83  A    between atoms: _228  and  _230
REMARK   84  A    between atoms: _230  and  _231
REMARK   85  A    between atoms: _230  and  _233
REMARK   86  A    between atoms: _233  and  _234
REMARK   87  A    between atoms: _236  and  _238
REMARK   88  A    between atoms: _238  and  _239
REMARK   89  A    between atoms: _238  and  _241
REMARK   90  A    between atoms: _241  and  _242
REMARK   91  A    between atoms: _242  and  _243
REMARK   92  A    between atoms: _243  and  _244
REMARK   93  A    between atoms: _244  and  _245
REMARK   94  A    between atoms: _249  and  _251
REMARK   95  A    between atoms: _251  and  _252
REMARK   96  A    between atoms: _251  and  _254
REMARK   97  A    between atoms: _254  and  _255
REMARK   98  A    between atoms: _257  and  _259
REMARK   99  A    between atoms: _259  and  _260
REMARK  100  A    between atoms: _262  and  _264
REMARK  101  A    between atoms: _264  and  _265
REMARK  102  A    between atoms: _264  and  _267
REMARK  103  A    between atoms: _267  and  _268
REMARK  104  A    between atoms: _273  and  _274
REMARK  105  A    between atoms: _276  and  _278
REMARK  106  A    between atoms: _278  and  _279
REMARK  107  A    between atoms: _278  and  _281
REMARK  108  A    between atoms: _284  and  _286
REMARK  109  A    between atoms: _286  and  _287
REMARK  110  A    between atoms: _289  and  _291
REMARK  111  A    between atoms: _291  and  _292
REMARK  112  A    between atoms: _291  and  _294
REMARK  113  A    between atoms: _294  and  _295
REMARK  114  A    between atoms: _300  and  _302
REMARK  115  A    between atoms: _302  and  _303
REMARK  116  A    between atoms: _306  and  _308
REMARK  117  A    between atoms: _308  and  _309
REMARK  118  A    between atoms: _308  and  _311
REMARK  119  A    between atoms: _311  and  _312
REMARK  120  A    between atoms: _317  and  _319
REMARK  121  A    between atoms: _319  and  _320
REMARK  122  A    between atoms: _319  and  _322
REMARK  123  A    between atoms: _322  and  _323
REMARK  124  A    between atoms: _323  and  _324
REMARK  125  A    between atoms: _327  and  _329
REMARK  126  A    between atoms: _329  and  _330
REMARK  127  A    between atoms: _329  and  _332
REMARK  128  A    between atoms: _332  and  _333
REMARK  129  A    between atoms: _333  and  _334
REMARK  130  A    between atoms: _334  and  _335
REMARK  131  A    between atoms: _335  and  CA_419
REMARK  132  A    between atoms: _337  and  _339
REMARK  133  A    between atoms: _339  and  _340
REMARK  134  A    between atoms: _339  and  _342
REMARK  135  A    between atoms: _342  and  _343
REMARK  136  A    between atoms: _345  and  _347
REMARK  137  A    between atoms: _347  and  _348
REMARK  138  A    between atoms: _351  and  _353
REMARK  139  A    between atoms: _353  and  _354
REMARK  140  A    between atoms: _356  and  _358
REMARK  141  A    between atoms: _358  and  _359
REMARK  142  A    between atoms: _358  and  _361
REMARK  143  A    between atoms: _361  and  _362
REMARK  144  A    between atoms: _362  and  _363
REMARK  145  A    between atoms: _363  and  _365
REMARK  146  A    between atoms: _365  and  CA_419
REMARK  147  A    between atoms: _366  and  _368
REMARK  148  A    between atoms: _368  and  _369
REMARK  149  A    between atoms: _368  and  _371
REMARK  150  A    between atoms: _371  and  _372
REMARK  151  A    between atoms: _377  and  _378
REMARK  152  A    between atoms: _380  and  _382
REMARK  153  A    between atoms: _382  and  _383
REMARK  154  A    between atoms: _382  and  _385
REMARK  155  A    between atoms: _385  and  _386
REMARK  156  A    between atoms: _392  and  _394
REMARK  157  A    between atoms: _394  and  _395
REMARK  158  A    between atoms: _394  and  _397
REMARK  159  A    between atoms: _397  and  _398
REMARK  160  A    between atoms: _401  and  _403
REMARK  161  A    between atoms: _403  and  _404
REMARK  162  A    between atoms: _403  and  _406
REMARK  163  A    between atoms: _406  and  _407
REMARK  164  A    between atoms: _410  and  _412
REMARK  165  A    between atoms: _412  and  _413
REMARK  166  A    between atoms: _412  and  _415
REMARK  167  A    between atoms: _415  and  _416
REMARK  168  A    between atoms: _416  and  _417
REMARK                            x       y       z     vdW  Elec       q    Type
REMARK                         _______ _______ _______ _____ _____    ______ ____
ROOT
ATOM      1  O   HOH     1      15.509  48.367  71.591  0.00  0.00    +0.000 OA
ENDROOT
TORSDOF 0
REMARK  Name = ../refined-set-2016/2jkp/2jkp_pocket.pdb
REMARK  168 active torsions:
REMARK  status: ('A' for Active; 'I' for Inactive)
REMARK    1  A    between atoms: _1  and  _3
REMARK    2  A    between atoms: _3  and  _4
REMARK    3  A    between atoms: _3  and  _6
REMARK    4  A    between atoms: _6  and  _7
REMARK    5  A    between atoms: _7  and  _8
REMARK    6  A    between atoms: _11  and  _13
REMARK    7  A    between atoms: _13  and  _14
REMARK    8  A    between atoms: _13  and  _16
REMARK    9  A    between atoms: _16  and  _17
REMARK   10  A    between atoms: _19  and  _21
REMARK   11  A    between atoms: _21  and  _22
REMARK   12  A    between atoms: _21  and  _24
REMARK   13  A    between atoms: _24  and  _25
REMARK   14  A    between atoms: _30  and  _31
REMARK   15  A    between atoms: _33  and  _35
REMARK   16  A    between atoms: _35  and  _36
REMARK   17  A    between atoms: _35  and  _38
REMARK   18  A    between atoms: _41  and  _43
REMARK   19  A    between atoms: _43  and  _44
REMARK   20  A    between atoms: _43  and  _46
REMARK   21  A    between atoms: _46  and  _47
REMARK   22  A    between atoms: _57  and  _59
REMARK   23  A    between atoms: _59  and  _60
REMARK   24  A    between atoms: _59  and  _62
REMARK   25  A    between atoms: _62  and  _63
REMARK   26  A    between atoms: _73  and  _75
REMARK   27  A    between atoms: _75  and  _76
REMARK   28  A    between atoms: _75  and  _78
REMARK   29  A    between atoms: _78  and  _79
REMARK   30  A    between atoms: _79  and  _80
REMARK   31  A    between atoms: _82  and  _84
REMARK   32  A    between atoms: _84  and  _85
REMARK   33  A    between atoms: _84  and  _87
REMARK   34  A    between atoms: _87  and  _88
REMARK   35  A    between atoms: _91  and  _93
REMARK   36  A    between atoms: _93  and  _94
REMARK   37  A    between atoms: _93  and  _96
REMARK   38  A    between atoms: _96  and  _97
REMARK   39  A    between atoms: _107  and  _109
REMARK   40  A    between atoms: _109  and  _110
REMARK   41  A    between atoms: _109  and  _112
REMARK   42  A    between atoms: _112  and  _113
REMARK   43  A    between atoms: _116  and  _118
REMARK   44  A    between atoms: _118  and  _119
REMARK   45  A    between atoms: _118  and  _121
REMARK   46  A    between atoms: _121  and  _122
REMARK   47  A    between atoms: _122  and  _123
REMARK   48  A    between atoms: _126  and  _128
REMARK   49  A    between atoms: _128  and  _129
REMARK   50  A    between atoms: _131  and  _133
REMARK   51  A    between atoms: _133  and  _134
REMARK   52  A    between atoms: _133  and  _136
REMARK   53  A    between atoms: _136  and  _137
REMARK   54  A    between atoms: _147  and  _149
REMARK   55  A    between atoms: _149  and  _150
REMARK   56  A    between atoms: _149  and  _152
REMARK   57  A    between atoms: _152  and  _153
REMARK   58  A    between atoms: _163  and  _165
REMARK   59  A    between atoms: _165  and  _166
REMARK   60  A    between atoms: _165  and  _168
REMARK   61  A    between atoms: _168  and  _169
REMARK   62  A    between atoms: _175  and  _177
REMARK   63  A    between atoms: _177  and  _178
REMARK   64  A    between atoms: _177  and  _180
REMARK   65  A    between atoms: _180  and  _181
REMARK   66  A    between atoms: _187  and  _189
REMARK   67  A    between atoms: _189  and  _190
REMARK   68  A    between atoms: _189  and  _192
REMARK   69  A    between atoms: _192  and  _193
REMARK   70  A    between atoms: _198  and  _200
REMARK   71  A    between atoms: _200  and  _201
REMARK   72  A    between atoms: _200  and  _203
REMARK   73  A    between atoms: _203  and  _204
REMARK   74  A    between atoms: _209  and  _211
REMARK   75  A    between atoms: _211  and  _212
REMARK   76  A    between atoms: _211  and  _214
REMARK   77  A    between atoms: _214  and  _215
REMARK   78  A    between atoms: _215  and  _216
REMARK   79  A    between atoms: _219  and  _221
REMARK   80  A    between atoms: _221  and  _222
REMARK   81  A    between atoms: _221  and  _224
REMARK   82  A    between atoms: _224  and  _225
REMARK   83  A    between atoms: _228  and  _230
REMARK   84  A    between atoms: _230  and  _231
REMARK   85  A    between atoms: _230  and  _233
REMARK   86  A    between atoms: _233  and  _234
REMARK   87  A    between atoms: _236  and  _238
REMARK   88  A    between atoms: _238  and  _239
REMARK   89  A    between atoms: _238  and  _241
REMARK   90  A    between atoms: _241  and  _242
REMARK   91  A    between atoms: _242  and  _243
REMARK   92  A    between atoms: _243  and  _244
REMARK   93  A    between atoms: _244  and  _245
REMARK   94  A    between atoms: _249  and  _251
REMARK   95  A    between atoms: _251  and  _252
REMARK   96  A    between atoms: _251  and  _254
REMARK   97  A    between atoms: _254  and  _255
REMARK   98  A    between atoms: _257  and  _259
REMARK   99  A    between atoms: _259  and  _260
REMARK  100  A    between atoms: _262  and  _264
REMARK  101  A    between atoms: _264  and  _265
REMARK  102  A    between atoms: _264  and  _267
REMARK  103  A    between atoms: _267  and  _268
REMARK  104  A    between atoms: _273  and  _274
REMARK  105  A    between atoms: _276  and  _278
REMARK  106  A    between atoms: _278  and  _279
REMARK  107  A    between atoms: _278  and  _281
REMARK  108  A    between atoms: _284  and  _286
REMARK  109  A    between atoms: _286  and  _287
REMARK  110  A    between atoms: _289  and  _291
REMARK  111  A    between atoms: _291  and  _292
REMARK  112  A    between atoms: _291  and  _294
REMARK  113  A    between atoms: _294  and  _295
REMARK  114  A    between atoms: _300  and  _302
REMARK  115  A    between atoms: _302  and  _303
REMARK  116  A    between atoms: _306  and  _308
REMARK  117  A    between atoms: _308  and  _309
REMARK  118  A    between atoms: _308  and  _311
REMARK  119  A    between atoms: _311  and  _312
REMARK  120  A    between atoms: _317  and  _319
REMARK  121  A    between atoms: _319  and  _320
REMARK  122  A    between atoms: _319  and  _322
REMARK  123  A    between atoms: _322  and  _323
REMARK  124  A    between atoms: _323  and  _324
REMARK  125  A    between atoms: _327  and  _329
REMARK  126  A    between atoms: _329  and  _330
REMARK  127  A    between atoms: _329  and  _332
REMARK  128  A    between atoms: _332  and  _333
REMARK  129  A    between atoms: _333  and  _334
REMARK  130  A    between atoms: _334  and  _335
REMARK  131  A    between atoms: _335  and  CA_419
REMARK  132  A    between atoms: _337  and  _339
REMARK  133  A    between atoms: _339  and  _340
REMARK  134  A    between atoms: _339  and  _342
REMARK  135  A    between atoms: _342  and  _343
REMARK  136  A    between atoms: _345  and  _347
REMARK  137  A    between atoms: _347  and  _348
REMARK  138  A    between atoms: _351  and  _353
REMARK  139  A    between atoms: _353  and  _354
REMARK  140  A    between atoms: _356  and  _358
REMARK  141  A    between atoms: _358  and  _359
REMARK  142  A    between atoms: _358  and  _361
REMARK  143  A    between atoms: _361  and  _362
REMARK  144  A    between atoms: _362  and  _363
REMARK  145  A    between atoms: _363  and  _365
REMARK  146  A    between atoms: _365  and  CA_419
REMARK  147  A    between atoms: _366  and  _368
REMARK  148  A    between atoms: _368  and  _369
REMARK  149  A    between atoms: _368  and  _371
REMARK  150  A    between atoms: _371  and  _372
REMARK  151  A    between atoms: _377  and  _378
REMARK  152  A    between atoms: _380  and  _382
REMARK  153  A    between atoms: _382  and  _383
REMARK  154  A    between atoms: _382  and  _385
REMARK  155  A    between atoms: _385  and  _386
REMARK  156  A    between atoms: _392  and  _394
REMARK  157  A    between atoms: _394  and  _395
REMARK  158  A    between atoms: _394  and  _397
REMARK  159  A    between atoms: _397  and  _398
REMARK  160  A    between atoms: _401  and  _403
REMARK  161  A    between atoms: _403  and  _404
REMARK  162  A    between atoms: _403  and  _406
REMARK  163  A    between atoms: _406  and  _407
REMARK  164  A    between atoms: _410  and  _412
REMARK  165  A    between atoms: _412  and  _413
REMARK  166  A    between atoms: _412  and  _415
REMARK  167  A    between atoms: _415  and  _416
REMARK  168  A    between atoms: _416  and  _417
REMARK                            x       y       z     vdW  Elec       q    Type
REMARK                         _______ _______ _______ _____ _____    ______ ____
ROOT
ATOM      1  O   HOH     1      29.992  47.078  69.704  0.00  0.00    +0.000 OA
ENDROOT
TORSDOF 0
REMARK  Name = ../refined-set-2016/2jkp/2jkp_pocket.pdb
REMARK  168 active torsions:
REMARK  status: ('A' for Active; 'I' for Inactive)
REMARK    1  A    between atoms: _1  and  _3
REMARK    2  A    between atoms: _3  and  _4
REMARK    3  A    between atoms: _3  and  _6
REMARK    4  A    between atoms: _6  and  _7
REMARK    5  A    between atoms: _7  and  _8
REMARK    6  A    between atoms: _11  and  _13
REMARK    7  A    between atoms: _13  and  _14
REMARK    8  A    between atoms: _13  and  _16
REMARK    9  A    between atoms: _16  and  _17
REMARK   10  A    between atoms: _19  and  _21
REMARK   11  A    between atoms: _21  and  _22
REMARK   12  A    between atoms: _21  and  _24
REMARK   13  A    between atoms: _24  and  _25
REMARK   14  A    between atoms: _30  and  _31
REMARK   15  A    between atoms: _33  and  _35
REMARK   16  A    between atoms: _35  and  _36
REMARK   17  A    between atoms: _35  and  _38
REMARK   18  A    between atoms: _41  and  _43
REMARK   19  A    between atoms: _43  and  _44
REMARK   20  A    between atoms: _43  and  _46
REMARK   21  A    between atoms: _46  and  _47
REMARK   22  A    between atoms: _57  and  _59
REMARK   23  A    between atoms: _59  and  _60
REMARK   24  A    between atoms: _59  and  _62
REMARK   25  A    between atoms: _62  and  _63
REMARK   26  A    between atoms: _73  and  _75
REMARK   27  A    between atoms: _75  and  _76
REMARK   28  A    between atoms: _75  and  _78
REMARK   29  A    between atoms: _78  and  _79
REMARK   30  A    between atoms: _79  and  _80
REMARK   31  A    between atoms: _82  and  _84
REMARK   32  A    between atoms: _84  and  _85
REMARK   33  A    between atoms: _84  and  _87
REMARK   34  A    between atoms: _87  and  _88
REMARK   35  A    between atoms: _91  and  _93
REMARK   36  A    between atoms: _93  and  _94
REMARK   37  A    between atoms: _93  and  _96
REMARK   38  A    between atoms: _96  and  _97
REMARK   39  A    between atoms: _107  and  _109
REMARK   40  A    between atoms: _109  and  _110
REMARK   41  A    between atoms: _109  and  _112
REMARK   42  A    between atoms: _112  and  _113
REMARK   43  A    between atoms: _116  and  _118
REMARK   44  A    between atoms: _118  and  _119
REMARK   45  A    between atoms: _118  and  _121
REMARK   46  A    between atoms: _121  and  _122
REMARK   47  A    between atoms: _122  and  _123
REMARK   48  A    between atoms: _126  and  _128
REMARK   49  A    between atoms: _128  and  _129
REMARK   50  A    between atoms: _131  and  _133
REMARK   51  A    between atoms: _133  and  _134
REMARK   52  A    between atoms: _133  and  _136
REMARK   53  A    between atoms: _136  and  _137
REMARK   54  A    between atoms: _147  and  _149
REMARK   55  A    between atoms: _149  and  _150
REMARK   56  A    between atoms: _149  and  _152
REMARK   57  A    between atoms: _152  and  _153
REMARK   58  A    between atoms: _163  and  _165
REMARK   59  A    between atoms: _165  and  _166
REMARK   60  A    between atoms: _165  and  _168
REMARK   61  A    between atoms: _168  and  _169
REMARK   62  A    between atoms: _175  and  _177
REMARK   63  A    between atoms: _177  and  _178
REMARK   64  A    between atoms: _177  and  _180
REMARK   65  A    between atoms: _180  and  _181
REMARK   66  A    between atoms: _187  and  _189
REMARK   67  A    between atoms: _189  and  _190
REMARK   68  A    between atoms: _189  and  _192
REMARK   69  A    between atoms: _192  and  _193
REMARK   70  A    between atoms: _198  and  _200
REMARK   71  A    between atoms: _200  and  _201
REMARK   72  A    between atoms: _200  and  _203
REMARK   73  A    between atoms: _203  and  _204
REMARK   74  A    between atoms: _209  and  _211
REMARK   75  A    between atoms: _211  and  _212
REMARK   76  A    between atoms: _211  and  _214
REMARK   77  A    between atoms: _214  and  _215
REMARK   78  A    between atoms: _215  and  _216
REMARK   79  A    between atoms: _219  and  _221
REMARK   80  A    between atoms: _221  and  _222
REMARK   81  A    between atoms: _221  and  _224
REMARK   82  A    between atoms: _224  and  _225
REMARK   83  A    between atoms: _228  and  _230
REMARK   84  A    between atoms: _230  and  _231
REMARK   85  A    between atoms: _230  and  _233
REMARK   86  A    between atoms: _233  and  _234
REMARK   87  A    between atoms: _236  and  _238
REMARK   88  A    between atoms: _238  and  _239
REMARK   89  A    between atoms: _238  and  _241
REMARK   90  A    between atoms: _241  and  _242
REMARK   91  A    between atoms: _242  and  _243
REMARK   92  A    between atoms: _243  and  _244
REMARK   93  A    between atoms: _244  and  _245
REMARK   94  A    between atoms: _249  and  _251
REMARK   95  A    between atoms: _251  and  _252
REMARK   96  A    between atoms: _251  and  _254
REMARK   97  A    between atoms: _254  and  _255
REMARK   98  A    between atoms: _257  and  _259
REMARK   99  A    between atoms: _259  and  _260
REMARK  100  A    between atoms: _262  and  _264
REMARK  101  A    between atoms: _264  and  _265
REMARK  102  A    between atoms: _264  and  _267
REMARK  103  A    between atoms: _267  and  _268
REMARK  104  A    between atoms: _273  and  _274
REMARK  105  A    between atoms: _276  and  _278
REMARK  106  A    between atoms: _278  and  _279
REMARK  107  A    between atoms: _278  and  _281
REMARK  108  A    between atoms: _284  and  _286
REMARK  109  A    between atoms: _286  and  _287
REMARK  110  A    between atoms: _289  and  _291
REMARK  111  A    between atoms: _291  and  _292
REMARK  112  A    between atoms: _291  and  _294
REMARK  113  A    between atoms: _294  and  _295
REMARK  114  A    between atoms: _300  and  _302
REMARK  115  A    between atoms: _302  and  _303
REMARK  116  A    between atoms: _306  and  _308
REMARK  117  A    between atoms: _308  and  _309
REMARK  118  A    between atoms: _308  and  _311
REMARK  119  A    between atoms: _311  and  _312
REMARK  120  A    between atoms: _317  and  _319
REMARK  121  A    between atoms: _319  and  _320
REMARK  122  A    between atoms: _319  and  _322
REMARK  123  A    between atoms: _322  and  _323
REMARK  124  A    between atoms: _323  and  _324
REMARK  125  A    between atoms: _327  and  _329
REMARK  126  A    between atoms: _329  and  _330
REMARK  127  A    between atoms: _329  and  _332
REMARK  128  A    between atoms: _332  and  _333
REMARK  129  A    between atoms: _333  and  _334
REMARK  130  A    between atoms: _334  and  _335
REMARK  131  A    between atoms: _335  and  CA_419
REMARK  132  A    between atoms: _337  and  _339
REMARK  133  A    between atoms: _339  and  _340
REMARK  134  A    between atoms: _339  and  _342
REMARK  135  A    between atoms: _342  and  _343
REMARK  136  A    between atoms: _345  and  _347
REMARK  137  A    between atoms: _347  and  _348
REMARK  138  A    between atoms: _351  and  _353
REMARK  139  A    between atoms: _353  and  _354
REMARK  140  A    between atoms: _356  and  _358
REMARK  141  A    between atoms: _358  and  _359
REMARK  142  A    between atoms: _358  and  _361
REMARK  143  A    between atoms: _361  and  _362
REMARK  144  A    between atoms: _362  and  _363
REMARK  145  A    between atoms: _363  and  _365
REMARK  146  A    between atoms: _365  and  CA_419
REMARK  147  A    between atoms: _366  and  _368
REMARK  148  A    between atoms: _368  and  _369
REMARK  149  A    between atoms: _368  and  _371
REMARK  150  A    between atoms: _371  and  _372
REMARK  151  A    between atoms: _377  and  _378
REMARK  152  A    between atoms: _380  and  _382
REMARK  153  A    between atoms: _382  and  _383
REMARK  154  A    between atoms: _382  and  _385
REMARK  155  A    between atoms: _385  and  _386
REMARK  156  A    between atoms: _392  and  _394
REMARK  157  A    between atoms: _394  and  _395
REMARK  158  A    between atoms: _394  and  _397
REMARK  159  A    between atoms: _397  and  _398
REMARK  160  A    between atoms: _401  and  _403
REMARK  161  A    between atoms: _403  and  _404
REMARK  162  A    between atoms: _403  and  _406
REMARK  163  A    between atoms: _406  and  _407
REMARK  164  A    between atoms: _410  and  _412
REMARK  165  A    between atoms: _412  and  _413
REMARK  166  A    between atoms: _412  and  _415
REMARK  167  A    between atoms: _415  and  _416
REMARK  168  A    between atoms: _416  and  _417
REMARK                            x       y       z     vdW  Elec       q    Type
REMARK                         _______ _______ _______ _____ _____    ______ ____
ROOT
ATOM      1  O   HOH     1      22.069  47.000  60.870  0.00  0.00    +0.000 OA
ENDROOT
TORSDOF 0
REMARK  Name = ../refined-set-2016/2jkp/2jkp_pocket.pdb
REMARK  168 active torsions:
REMARK  status: ('A' for Active; 'I' for Inactive)
REMARK    1  A    between atoms: _1  and  _3
REMARK    2  A    between atoms: _3  and  _4
REMARK    3  A    between atoms: _3  and  _6
REMARK    4  A    between atoms: _6  and  _7
REMARK    5  A    between atoms: _7  and  _8
REMARK    6  A    between atoms: _11  and  _13
REMARK    7  A    between atoms: _13  and  _14
REMARK    8  A    between atoms: _13  and  _16
REMARK    9  A    between atoms: _16  and  _17
REMARK   10  A    between atoms: _19  and  _21
REMARK   11  A    between atoms: _21  and  _22
REMARK   12  A    between atoms: _21  and  _24
REMARK   13  A    between atoms: _24  and  _25
REMARK   14  A    between atoms: _30  and  _31
REMARK   15  A    between atoms: _33  and  _35
REMARK   16  A    between atoms: _35  and  _36
REMARK   17  A    between atoms: _35  and  _38
REMARK   18  A    between atoms: _41  and  _43
REMARK   19  A    between atoms: _43  and  _44
REMARK   20  A    between atoms: _43  and  _46
REMARK   21  A    between atoms: _46  and  _47
REMARK   22  A    between atoms: _57  and  _59
REMARK   23  A    between atoms: _59  and  _60
REMARK   24  A    between atoms: _59  and  _62
REMARK   25  A    between atoms: _62  and  _63
REMARK   26  A    between atoms: _73  and  _75
REMARK   27  A    between atoms: _75  and  _76
REMARK   28  A    between atoms: _75  and  _78
REMARK   29  A    between atoms: _78  and  _79
REMARK   30  A    between atoms: _79  and  _80
REMARK   31  A    between atoms: _82  and  _84
REMARK   32  A    between atoms: _84  and  _85
REMARK   33  A    between atoms: _84  and  _87
REMARK   34  A    between atoms: _87  and  _88
REMARK   35  A    between atoms: _91  and  _93
REMARK   36  A    between atoms: _93  and  _94
REMARK   37  A    between atoms: _93  and  _96
REMARK   38  A    between atoms: _96  and  _97
REMARK   39  A    between atoms: _107  and  _109
REMARK   40  A    between atoms: _109  and  _110
REMARK   41  A    between atoms: _109  and  _112
REMARK   42  A    between atoms: _112  and  _113
REMARK   43  A    between atoms: _116  and  _118
REMARK   44  A    between atoms: _118  and  _119
REMARK   45  A    between atoms: _118  and  _121
REMARK   46  A    between atoms: _121  and  _122
REMARK   47  A    between atoms: _122  and  _123
REMARK   48  A    between atoms: _126  and  _128
REMARK   49  A    between atoms: _128  and  _129
REMARK   50  A    between atoms: _131  and  _133
REMARK   51  A    between atoms: _133  and  _134
REMARK   52  A    between atoms: _133  and  _136
REMARK   53  A    between atoms: _136  and  _137
REMARK   54  A    between atoms: _147  and  _149
REMARK   55  A    between atoms: _149  and  _150
REMARK   56  A    between atoms: _149  and  _152
REMARK   57  A    between atoms: _152  and  _153
REMARK   58  A    between atoms: _163  and  _165
REMARK   59  A    between atoms: _165  and  _166
REMARK   60  A    between atoms: _165  and  _168
REMARK   61  A    between atoms: _168  and  _169
REMARK   62  A    between atoms: _175  and  _177
REMARK   63  A    between atoms: _177  and  _178
REMARK   64  A    between atoms: _177  and  _180
REMARK   65  A    between atoms: _180  and  _181
REMARK   66  A    between atoms: _187  and  _189
REMARK   67  A    between atoms: _189  and  _190
REMARK   68  A    between atoms: _189  and  _192
REMARK   69  A    between atoms: _192  and  _193
REMARK   70  A    between atoms: _198  and  _200
REMARK   71  A    between atoms: _200  and  _201
REMARK   72  A    between atoms: _200  and  _203
REMARK   73  A    between atoms: _203  and  _204
REMARK   74  A    between atoms: _209  and  _211
REMARK   75  A    between atoms: _211  and  _212
REMARK   76  A    between atoms: _211  and  _214
REMARK   77  A    between atoms: _214  and  _215
REMARK   78  A    between atoms: _215  and  _216
REMARK   79  A    between atoms: _219  and  _221
REMARK   80  A    between atoms: _221  and  _222
REMARK   81  A    between atoms: _221  and  _224
REMARK   82  A    between atoms: _224  and  _225
REMARK   83  A    between atoms: _228  and  _230
REMARK   84  A    between atoms: _230  and  _231
REMARK   85  A    between atoms: _230  and  _233
REMARK   86  A    between atoms: _233  and  _234
REMARK   87  A    between atoms: _236  and  _238
REMARK   88  A    between atoms: _238  and  _239
REMARK   89  A    between atoms: _238  and  _241
REMARK   90  A    between atoms: _241  and  _242
REMARK   91  A    between atoms: _242  and  _243
REMARK   92  A    between atoms: _243  and  _244
REMARK   93  A    between atoms: _244  and  _245
REMARK   94  A    between atoms: _249  and  _251
REMARK   95  A    between atoms: _251  and  _252
REMARK   96  A    between atoms: _251  and  _254
REMARK   97  A    between atoms: _254  and  _255
REMARK   98  A    between atoms: _257  and  _259
REMARK   99  A    between atoms: _259  and  _260
REMARK  100  A    between atoms: _262  and  _264
REMARK  101  A    between atoms: _264  and  _265
REMARK  102  A    between atoms: _264  and  _267
REMARK  103  A    between atoms: _267  and  _268
REMARK  104  A    between atoms: _273  and  _274
REMARK  105  A    between atoms: _276  and  _278
REMARK  106  A    between atoms: _278  and  _279
REMARK  107  A    between atoms: _278  and  _281
REMARK  108  A    between atoms: _284  and  _286
REMARK  109  A    between atoms: _286  and  _287
REMARK  110  A    between atoms: _289  and  _291
REMARK  111  A    between atoms: _291  and  _292
REMARK  112  A    between atoms: _291  and  _294
REMARK  113  A    between atoms: _294  and  _295
REMARK  114  A    between atoms: _300  and  _302
REMARK  115  A    between atoms: _302  and  _303
REMARK  116  A    between atoms: _306  and  _308
REMARK  117  A    between atoms: _308  and  _309
REMARK  118  A    between atoms: _308  and  _311
REMARK  119  A    between atoms: _311  and  _312
REMARK  120  A    between atoms: _317  and  _319
REMARK  121  A    between atoms: _319  and  _320
REMARK  122  A    between atoms: _319  and  _322
REMARK  123  A    between atoms: _322  and  _323
REMARK  124  A    between atoms: _323  and  _324
REMARK  125  A    between atoms: _327  and  _329
REMARK  126  A    between atoms: _329  and  _330
REMARK  127  A    between atoms: _329  and  _332
REMARK  128  A    between atoms: _332  and  _333
REMARK  129  A    between atoms: _333  and  _334
REMARK  130  A    between atoms: _334  and  _335
REMARK  131  A    between atoms: _335  and  CA_419
REMARK  132  A    between atoms: _337  and  _339
REMARK  133  A    between atoms: _339  and  _340
REMARK  134  A    between atoms: _339  and  _342
REMARK  135  A    between atoms: _342  and  _343
REMARK  136  A    between atoms: _345  and  _347
REMARK  137  A    between atoms: _347  and  _348
REMARK  138  A    between atoms: _351  and  _353
REMARK  139  A    between atoms: _353  and  _354
REMARK  140  A    between atoms: _356  and  _358
REMARK  141  A    between atoms: _358  and  _359
REMARK  142  A    between atoms: _358  and  _361
REMARK  143  A    between atoms: _361  and  _362
REMARK  144  A    between atoms: _362  and  _363
REMARK  145  A    between atoms: _363  and  _365
REMARK  146  A    between atoms: _365  and  CA_419
REMARK  147  A    between atoms: _366  and  _368
REMARK  148  A    between atoms: _368  and  _369
REMARK  149  A    between atoms: _368  and  _371
REMARK  150  A    between atoms: _371  and  _372
REMARK  151  A    between atoms: _377  and  _378
REMARK  152  A    between atoms: _380  and  _382
REMARK  153  A    between atoms: _382  and  _383
REMARK  154  A    between atoms: _382  and  _385
REMARK  155  A    between atoms: _385  and  _386
REMARK  156  A    between atoms: _392  and  _394
REMARK  157  A    between atoms: _394  and  _395
REMARK  158  A    between atoms: _394  and  _397
REMARK  159  A    between atoms: _397  and  _398
REMARK  160  A    between atoms: _401  and  _403
REMARK  161  A    between atoms: _403  and  _404
REMARK  162  A    between atoms: _403  and  _406
REMARK  163  A    between atoms: _406  and  _407
REMARK  164  A    between atoms: _410  and  _412
REMARK  165  A    between atoms: _412  and  _413
REMARK  166  A    between atoms: _412  and  _415
REMARK  167  A    between atoms: _415  and  _416
REMARK  168  A    between atoms: _416  and  _417
REMARK                            x       y       z     vdW  Elec       q    Type
REMARK                         _______ _______ _______ _____ _____    ______ ____
ROOT
ATOM      1  O   HOH     1      30.594  45.498  64.387  0.00  0.00    +0.000 OA
ENDROOT
TORSDOF 0
REMARK  Name = ../refined-set-2016/2jkp/2jkp_pocket.pdb
REMARK  168 active torsions:
REMARK  status: ('A' for Active; 'I' for Inactive)
REMARK    1  A    between atoms: _1  and  _3
REMARK    2  A    between atoms: _3  and  _4
REMARK    3  A    between atoms: _3  and  _6
REMARK    4  A    between atoms: _6  and  _7
REMARK    5  A    between atoms: _7  and  _8
REMARK    6  A    between atoms: _11  and  _13
REMARK    7  A    between atoms: _13  and  _14
REMARK    8  A    between atoms: _13  and  _16
REMARK    9  A    between atoms: _16  and  _17
REMARK   10  A    between atoms: _19  and  _21
REMARK   11  A    between atoms: _21  and  _22
REMARK   12  A    between atoms: _21  and  _24
REMARK   13  A    between atoms: _24  and  _25
REMARK   14  A    between atoms: _30  and  _31
REMARK   15  A    between atoms: _33  and  _35
REMARK   16  A    between atoms: _35  and  _36
REMARK   17  A    between atoms: _35  and  _38
REMARK   18  A    between atoms: _41  and  _43
REMARK   19  A    between atoms: _43  and  _44
REMARK   20  A    between atoms: _43  and  _46
REMARK   21  A    between atoms: _46  and  _47
REMARK   22  A    between atoms: _57  and  _59
REMARK   23  A    between atoms: _59  and  _60
REMARK   24  A    between atoms: _59  and  _62
REMARK   25  A    between atoms: _62  and  _63
REMARK   26  A    between atoms: _73  and  _75
REMARK   27  A    between atoms: _75  and  _76
REMARK   28  A    between atoms: _75  and  _78
REMARK   29  A    between atoms: _78  and  _79
REMARK   30  A    between atoms: _79  and  _80
REMARK   31  A    between atoms: _82  and  _84
REMARK   32  A    between atoms: _84  and  _85
REMARK   33  A    between atoms: _84  and  _87
REMARK   34  A    between atoms: _87  and  _88
REMARK   35  A    between atoms: _91  and  _93
REMARK   36  A    between atoms: _93  and  _94
REMARK   37  A    between atoms: _93  and  _96
REMARK   38  A    between atoms: _96  and  _97
REMARK   39  A    between atoms: _107  and  _109
REMARK   40  A    between atoms: _109  and  _110
REMARK   41  A    between atoms: _109  and  _112
REMARK   42  A    between atoms: _112  and  _113
REMARK   43  A    between atoms: _116  and  _118
REMARK   44  A    between atoms: _118  and  _119
REMARK   45  A    between atoms: _118  and  _121
REMARK   46  A    between atoms: _121  and  _122
REMARK   47  A    between atoms: _122  and  _123
REMARK   48  A    between atoms: _126  and  _128
REMARK   49  A    between atoms: _128  and  _129
REMARK   50  A    between atoms: _131  and  _133
REMARK   51  A    between atoms: _133  and  _134
REMARK   52  A    between atoms: _133  and  _136
REMARK   53  A    between atoms: _136  and  _137
REMARK   54  A    between atoms: _147  and  _149
REMARK   55  A    between atoms: _149  and  _150
REMARK   56  A    between atoms: _149  and  _152
REMARK   57  A    between atoms: _152  and  _153
REMARK   58  A    between atoms: _163  and  _165
REMARK   59  A    between atoms: _165  and  _166
REMARK   60  A    between atoms: _165  and  _168
REMARK   61  A    between atoms: _168  and  _169
REMARK   62  A    between atoms: _175  and  _177
REMARK   63  A    between atoms: _177  and  _178
REMARK   64  A    between atoms: _177  and  _180
REMARK   65  A    between atoms: _180  and  _181
REMARK   66  A    between atoms: _187  and  _189
REMARK   67  A    between atoms: _189  and  _190
REMARK   68  A    between atoms: _189  and  _192
REMARK   69  A    between atoms: _192  and  _193
REMARK   70  A    between atoms: _198  and  _200
REMARK   71  A    between atoms: _200  and  _201
REMARK   72  A    between atoms: _200  and  _203
REMARK   73  A    between atoms: _203  and  _204
REMARK   74  A    between atoms: _209  and  _211
REMARK   75  A    between atoms: _211  and  _212
REMARK   76  A    between atoms: _211  and  _214
REMARK   77  A    between atoms: _214  and  _215
REMARK   78  A    between atoms: _215  and  _216
REMARK   79  A    between atoms: _219  and  _221
REMARK   80  A    between atoms: _221  and  _222
REMARK   81  A    between atoms: _221  and  _224
REMARK   82  A    between atoms: _224  and  _225
REMARK   83  A    between atoms: _228  and  _230
REMARK   84  A    between atoms: _230  and  _231
REMARK   85  A    between atoms: _230  and  _233
REMARK   86  A    between atoms: _233  and  _234
REMARK   87  A    between atoms: _236  and  _238
REMARK   88  A    between atoms: _238  and  _239
REMARK   89  A    between atoms: _238  and  _241
REMARK   90  A    between atoms: _241  and  _242
REMARK   91  A    between atoms: _242  and  _243
REMARK   92  A    between atoms: _243  and  _244
REMARK   93  A    between atoms: _244  and  _245
REMARK   94  A    between atoms: _249  and  _251
REMARK   95  A    between atoms: _251  and  _252
REMARK   96  A    between atoms: _251  and  _254
REMARK   97  A    between atoms: _254  and  _255
REMARK   98  A    between atoms: _257  and  _259
REMARK   99  A    between atoms: _259  and  _260
REMARK  100  A    between atoms: _262  and  _264
REMARK  101  A    between atoms: _264  and  _265
REMARK  102  A    between atoms: _264  and  _267
REMARK  103  A    between atoms: _267  and  _268
REMARK  104  A    between atoms: _273  and  _274
REMARK  105  A    between atoms: _276  and  _278
REMARK  106  A    between atoms: _278  and  _279
REMARK  107  A    between atoms: _278  and  _281
REMARK  108  A    between atoms: _284  and  _286
REMARK  109  A    between atoms: _286  and  _287
REMARK  110  A    between atoms: _289  and  _291
REMARK  111  A    between atoms: _291  and  _292
REMARK  112  A    between atoms: _291  and  _294
REMARK  113  A    between atoms: _294  and  _295
REMARK  114  A    between atoms: _300  and  _302
REMARK  115  A    between atoms: _302  and  _303
REMARK  116  A    between atoms: _306  and  _308
REMARK  117  A    between atoms: _308  and  _309
REMARK  118  A    between atoms: _308  and  _311
REMARK  119  A    between atoms: _311  and  _312
REMARK  120  A    between atoms: _317  and  _319
REMARK  121  A    between atoms: _319  and  _320
REMARK  122  A    between atoms: _319  and  _322
REMARK  123  A    between atoms: _322  and  _323
REMARK  124  A    between atoms: _323  and  _324
REMARK  125  A    between atoms: _327  and  _329
REMARK  126  A    between atoms: _329  and  _330
REMARK  127  A    between atoms: _329  and  _332
REMARK  128  A    between atoms: _332  and  _333
REMARK  129  A    between atoms: _333  and  _334
REMARK  130  A    between atoms: _334  and  _335
REMARK  131  A    between atoms: _335  and  CA_419
REMARK  132  A    between atoms: _337  and  _339
REMARK  133  A    between atoms: _339  and  _340
REMARK  134  A    between atoms: _339  and  _342
REMARK  135  A    between atoms: _342  and  _343
REMARK  136  A    between atoms: _345  and  _347
REMARK  137  A    between atoms: _347  and  _348
REMARK  138  A    between atoms: _351  and  _353
REMARK  139  A    between atoms: _353  and  _354
REMARK  140  A    between atoms: _356  and  _358
REMARK  141  A    between atoms: _358  and  _359
REMARK  142  A    between atoms: _358  and  _361
REMARK  143  A    between atoms: _361  and  _362
REMARK  144  A    between atoms: _362  and  _363
REMARK  145  A    between atoms: _363  and  _365
REMARK  146  A    between atoms: _365  and  CA_419
REMARK  147  A    between atoms: _366  and  _368
REMARK  148  A    between atoms: _368  and  _369
REMARK  149  A    between atoms: _368  and  _371
REMARK  150  A    between atoms: _371  and  _372
REMARK  151  A    between atoms: _377  and  _378
REMARK  152  A    between atoms: _380  and  _382
REMARK  153  A    between atoms: _382  and  _383
REMARK  154  A    between atoms: _382  and  _385
REMARK  155  A    between atoms: _385  and  _386
REMARK  156  A    between atoms: _392  and  _394
REMARK  157  A    between atoms: _394  and  _395
REMARK  158  A    between atoms: _394  and  _397
REMARK  159  A    between atoms: _397  and  _398
REMARK  160  A    between atoms: _401  and  _403
REMARK  161  A    between atoms: _403  and  _404
REMARK  162  A    between atoms: _403  and  _406
REMARK  163  A    between atoms: _406  and  _407
REMARK  164  A    between atoms: _410  and  _412
REMARK  165  A    between atoms: _412  and  _413
REMARK  166  A    between atoms: _412  and  _415
REMARK  167  A    between atoms: _415  and  _416
REMARK  168  A    between atoms: _416  and  _417
REMARK                            x       y       z     vdW  Elec       q    Type
REMARK                         _______ _______ _______ _____ _____    ______ ____
ROOT
ATOM      1  O   HOH     1      22.964  35.625  64.063  0.00  0.00    +0.000 OA
ENDROOT
TORSDOF 0
REMARK  Name = ../refined-set-2016/2jkp/2jkp_pocket.pdb
REMARK  168 active torsions:
REMARK  status: ('A' for Active; 'I' for Inactive)
REMARK    1  A    between atoms: _1  and  _3
REMARK    2  A    between atoms: _3  and  _4
REMARK    3  A    between atoms: _3  and  _6
REMARK    4  A    between atoms: _6  and  _7
REMARK    5  A    between atoms: _7  and  _8
REMARK    6  A    between atoms: _11  and  _13
REMARK    7  A    between atoms: _13  and  _14
REMARK    8  A    between atoms: _13  and  _16
REMARK    9  A    between atoms: _16  and  _17
REMARK   10  A    between atoms: _19  and  _21
REMARK   11  A    between atoms: _21  and  _22
REMARK   12  A    between atoms: _21  and  _24
REMARK   13  A    between atoms: _24  and  _25
REMARK   14  A    between atoms: _30  and  _31
REMARK   15  A    between atoms: _33  and  _35
REMARK   16  A    between atoms: _35  and  _36
REMARK   17  A    between atoms: _35  and  _38
REMARK   18  A    between atoms: _41  and  _43
REMARK   19  A    between atoms: _43  and  _44
REMARK   20  A    between atoms: _43  and  _46
REMARK   21  A    between atoms: _46  and  _47
REMARK   22  A    between atoms: _57  and  _59
REMARK   23  A    between atoms: _59  and  _60
REMARK   24  A    between atoms: _59  and  _62
REMARK   25  A    between atoms: _62  and  _63
REMARK   26  A    between atoms: _73  and  _75
REMARK   27  A    between atoms: _75  and  _76
REMARK   28  A    between atoms: _75  and  _78
REMARK   29  A    between atoms: _78  and  _79
REMARK   30  A    between atoms: _79  and  _80
REMARK   31  A    between atoms: _82  and  _84
REMARK   32  A    between atoms: _84  and  _85
REMARK   33  A    between atoms: _84  and  _87
REMARK   34  A    between atoms: _87  and  _88
REMARK   35  A    between atoms: _91  and  _93
REMARK   36  A    between atoms: _93  and  _94
REMARK   37  A    between atoms: _93  and  _96
REMARK   38  A    between atoms: _96  and  _97
REMARK   39  A    between atoms: _107  and  _109
REMARK   40  A    between atoms: _109  and  _110
REMARK   41  A    between atoms: _109  and  _112
REMARK   42  A    between atoms: _112  and  _113
REMARK   43  A    between atoms: _116  and  _118
REMARK   44  A    between atoms: _118  and  _119
REMARK   45  A    between atoms: _118  and  _121
REMARK   46  A    between atoms: _121  and  _122
REMARK   47  A    between atoms: _122  and  _123
REMARK   48  A    between atoms: _126  and  _128
REMARK   49  A    between atoms: _128  and  _129
REMARK   50  A    between atoms: _131  and  _133
REMARK   51  A    between atoms: _133  and  _134
REMARK   52  A    between atoms: _133  and  _136
REMARK   53  A    between atoms: _136  and  _137
REMARK   54  A    between atoms: _147  and  _149
REMARK   55  A    between atoms: _149  and  _150
REMARK   56  A    between atoms: _149  and  _152
REMARK   57  A    between atoms: _152  and  _153
REMARK   58  A    between atoms: _163  and  _165
REMARK   59  A    between atoms: _165  and  _166
REMARK   60  A    between atoms: _165  and  _168
REMARK   61  A    between atoms: _168  and  _169
REMARK   62  A    between atoms: _175  and  _177
REMARK   63  A    between atoms: _177  and  _178
REMARK   64  A    between atoms: _177  and  _180
REMARK   65  A    between atoms: _180  and  _181
REMARK   66  A    between atoms: _187  and  _189
REMARK   67  A    between atoms: _189  and  _190
REMARK   68  A    between atoms: _189  and  _192
REMARK   69  A    between atoms: _192  and  _193
REMARK   70  A    between atoms: _198  and  _200
REMARK   71  A    between atoms: _200  and  _201
REMARK   72  A    between atoms: _200  and  _203
REMARK   73  A    between atoms: _203  and  _204
REMARK   74  A    between atoms: _209  and  _211
REMARK   75  A    between atoms: _211  and  _212
REMARK   76  A    between atoms: _211  and  _214
REMARK   77  A    between atoms: _214  and  _215
REMARK   78  A    between atoms: _215  and  _216
REMARK   79  A    between atoms: _219  and  _221
REMARK   80  A    between atoms: _221  and  _222
REMARK   81  A    between atoms: _221  and  _224
REMARK   82  A    between atoms: _224  and  _225
REMARK   83  A    between atoms: _228  and  _230
REMARK   84  A    between atoms: _230  and  _231
REMARK   85  A    between atoms: _230  and  _233
REMARK   86  A    between atoms: _233  and  _234
REMARK   87  A    between atoms: _236  and  _238
REMARK   88  A    between atoms: _238  and  _239
REMARK   89  A    between atoms: _238  and  _241
REMARK   90  A    between atoms: _241  and  _242
REMARK   91  A    between atoms: _242  and  _243
REMARK   92  A    between atoms: _243  and  _244
REMARK   93  A    between atoms: _244  and  _245
REMARK   94  A    between atoms: _249  and  _251
REMARK   95  A    between atoms: _251  and  _252
REMARK   96  A    between atoms: _251  and  _254
REMARK   97  A    between atoms: _254  and  _255
REMARK   98  A    between atoms: _257  and  _259
REMARK   99  A    between atoms: _259  and  _260
REMARK  100  A    between atoms: _262  and  _264
REMARK  101  A    between atoms: _264  and  _265
REMARK  102  A    between atoms: _264  and  _267
REMARK  103  A    between atoms: _267  and  _268
REMARK  104  A    between atoms: _273  and  _274
REMARK  105  A    between atoms: _276  and  _278
REMARK  106  A    between atoms: _278  and  _279
REMARK  107  A    between atoms: _278  and  _281
REMARK  108  A    between atoms: _284  and  _286
REMARK  109  A    between atoms: _286  and  _287
REMARK  110  A    between atoms: _289  and  _291
REMARK  111  A    between atoms: _291  and  _292
REMARK  112  A    between atoms: _291  and  _294
REMARK  113  A    between atoms: _294  and  _295
REMARK  114  A    between atoms: _300  and  _302
REMARK  115  A    between atoms: _302  and  _303
REMARK  116  A    between atoms: _306  and  _308
REMARK  117  A    between atoms: _308  and  _309
REMARK  118  A    between atoms: _308  and  _311
REMARK  119  A    between atoms: _311  and  _312
REMARK  120  A    between atoms: _317  and  _319
REMARK  121  A    between atoms: _319  and  _320
REMARK  122  A    between atoms: _319  and  _322
REMARK  123  A    between atoms: _322  and  _323
REMARK  124  A    between atoms: _323  and  _324
REMARK  125  A    between atoms: _327  and  _329
REMARK  126  A    between atoms: _329  and  _330
REMARK  127  A    between atoms: _329  and  _332
REMARK  128  A    between atoms: _332  and  _333
REMARK  129  A    between atoms: _333  and  _334
REMARK  130  A    between atoms: _334  and  _335
REMARK  131  A    between atoms: _335  and  CA_419
REMARK  132  A    between atoms: _337  and  _339
REMARK  133  A    between atoms: _339  and  _340
REMARK  134  A    between atoms: _339  and  _342
REMARK  135  A    between atoms: _342  and  _343
REMARK  136  A    between atoms: _345  and  _347
REMARK  137  A    between atoms: _347  and  _348
REMARK  138  A    between atoms: _351  and  _353
REMARK  139  A    between atoms: _353  and  _354
REMARK  140  A    between atoms: _356  and  _358
REMARK  141  A    between atoms: _358  and  _359
REMARK  142  A    between atoms: _358  and  _361
REMARK  143  A    between atoms: _361  and  _362
REMARK  144  A    between atoms: _362  and  _363
REMARK  145  A    between atoms: _363  and  _365
REMARK  146  A    between atoms: _365  and  CA_419
REMARK  147  A    between atoms: _366  and  _368
REMARK  148  A    between atoms: _368  and  _369
REMARK  149  A    between atoms: _368  and  _371
REMARK  150  A    between atoms: _371  and  _372
REMARK  151  A    between atoms: _377  and  _378
REMARK  152  A    between atoms: _380  and  _382
REMARK  153  A    between atoms: _382  and  _383
REMARK  154  A    between atoms: _382  and  _385
REMARK  155  A    between atoms: _385  and  _386
REMARK  156  A    between atoms: _392  and  _394
REMARK  157  A    between atoms: _394  and  _395
REMARK  158  A    between atoms: _394  and  _397
REMARK  159  A    between atoms: _397  and  _398
REMARK  160  A    between atoms: _401  and  _403
REMARK  161  A    between atoms: _403  and  _404
REMARK  162  A    between atoms: _403  and  _406
REMARK  163  A    between atoms: _406  and  _407
REMARK  164  A    between atoms: _410  and  _412
REMARK  165  A    between atoms: _412  and  _413
REMARK  166  A    between atoms: _412  and  _415
REMARK  167  A    between atoms: _415  and  _416
REMARK  168  A    between atoms: _416  and  _417
REMARK                            x       y       z     vdW  Elec       q    Type
REMARK                         _______ _______ _______ _____ _____    ______ ____
ROOT
ATOM      1  O   HOH     1      25.243  34.971  65.372  0.00  0.00    +0.000 OA
ENDROOT
TORSDOF 0
REMARK  Name = ../refined-set-2016/2jkp/2jkp_pocket.pdb
REMARK  168 active torsions:
REMARK  status: ('A' for Active; 'I' for Inactive)
REMARK    1  A    between atoms: _1  and  _3
REMARK    2  A    between atoms: _3  and  _4
REMARK    3  A    between atoms: _3  and  _6
REMARK    4  A    between atoms: _6  and  _7
REMARK    5  A    between atoms: _7  and  _8
REMARK    6  A    between atoms: _11  and  _13
REMARK    7  A    between atoms: _13  and  _14
REMARK    8  A    between atoms: _13  and  _16
REMARK    9  A    between atoms: _16  and  _17
REMARK   10  A    between atoms: _19  and  _21
REMARK   11  A    between atoms: _21  and  _22
REMARK   12  A    between atoms: _21  and  _24
REMARK   13  A    between atoms: _24  and  _25
REMARK   14  A    between atoms: _30  and  _31
REMARK   15  A    between atoms: _33  and  _35
REMARK   16  A    between atoms: _35  and  _36
REMARK   17  A    between atoms: _35  and  _38
REMARK   18  A    between atoms: _41  and  _43
REMARK   19  A    between atoms: _43  and  _44
REMARK   20  A    between atoms: _43  and  _46
REMARK   21  A    between atoms: _46  and  _47
REMARK   22  A    between atoms: _57  and  _59
REMARK   23  A    between atoms: _59  and  _60
REMARK   24  A    between atoms: _59  and  _62
REMARK   25  A    between atoms: _62  and  _63
REMARK   26  A    between atoms: _73  and  _75
REMARK   27  A    between atoms: _75  and  _76
REMARK   28  A    between atoms: _75  and  _78
REMARK   29  A    between atoms: _78  and  _79
REMARK   30  A    between atoms: _79  and  _80
REMARK   31  A    between atoms: _82  and  _84
REMARK   32  A    between atoms: _84  and  _85
REMARK   33  A    between atoms: _84  and  _87
REMARK   34  A    between atoms: _87  and  _88
REMARK   35  A    between atoms: _91  and  _93
REMARK   36  A    between atoms: _93  and  _94
REMARK   37  A    between atoms: _93  and  _96
REMARK   38  A    between atoms: _96  and  _97
REMARK   39  A    between atoms: _107  and  _109
REMARK   40  A    between atoms: _109  and  _110
REMARK   41  A    between atoms: _109  and  _112
REMARK   42  A    between atoms: _112  and  _113
REMARK   43  A    between atoms: _116  and  _118
REMARK   44  A    between atoms: _118  and  _119
REMARK   45  A    between atoms: _118  and  _121
REMARK   46  A    between atoms: _121  and  _122
REMARK   47  A    between atoms: _122  and  _123
REMARK   48  A    between atoms: _126  and  _128
REMARK   49  A    between atoms: _128  and  _129
REMARK   50  A    between atoms: _131  and  _133
REMARK   51  A    between atoms: _133  and  _134
REMARK   52  A    between atoms: _133  and  _136
REMARK   53  A    between atoms: _136  and  _137
REMARK   54  A    between atoms: _147  and  _149
REMARK   55  A    between atoms: _149  and  _150
REMARK   56  A    between atoms: _149  and  _152
REMARK   57  A    between atoms: _152  and  _153
REMARK   58  A    between atoms: _163  and  _165
REMARK   59  A    between atoms: _165  and  _166
REMARK   60  A    between atoms: _165  and  _168
REMARK   61  A    between atoms: _168  and  _169
REMARK   62  A    between atoms: _175  and  _177
REMARK   63  A    between atoms: _177  and  _178
REMARK   64  A    between atoms: _177  and  _180
REMARK   65  A    between atoms: _180  and  _181
REMARK   66  A    between atoms: _187  and  _189
REMARK   67  A    between atoms: _189  and  _190
REMARK   68  A    between atoms: _189  and  _192
REMARK   69  A    between atoms: _192  and  _193
REMARK   70  A    between atoms: _198  and  _200
REMARK   71  A    between atoms: _200  and  _201
REMARK   72  A    between atoms: _200  and  _203
REMARK   73  A    between atoms: _203  and  _204
REMARK   74  A    between atoms: _209  and  _211
REMARK   75  A    between atoms: _211  and  _212
REMARK   76  A    between atoms: _211  and  _214
REMARK   77  A    between atoms: _214  and  _215
REMARK   78  A    between atoms: _215  and  _216
REMARK   79  A    between atoms: _219  and  _221
REMARK   80  A    between atoms: _221  and  _222
REMARK   81  A    between atoms: _221  and  _224
REMARK   82  A    between atoms: _224  and  _225
REMARK   83  A    between atoms: _228  and  _230
REMARK   84  A    between atoms: _230  and  _231
REMARK   85  A    between atoms: _230  and  _233
REMARK   86  A    between atoms: _233  and  _234
REMARK   87  A    between atoms: _236  and  _238
REMARK   88  A    between atoms: _238  and  _239
REMARK   89  A    between atoms: _238  and  _241
REMARK   90  A    between atoms: _241  and  _242
REMARK   91  A    between atoms: _242  and  _243
REMARK   92  A    between atoms: _243  and  _244
REMARK   93  A    between atoms: _244  and  _245
REMARK   94  A    between atoms: _249  and  _251
REMARK   95  A    between atoms: _251  and  _252
REMARK   96  A    between atoms: _251  and  _254
REMARK   97  A    between atoms: _254  and  _255
REMARK   98  A    between atoms: _257  and  _259
REMARK   99  A    between atoms: _259  and  _260
REMARK  100  A    between atoms: _262  and  _264
REMARK  101  A    between atoms: _264  and  _265
REMARK  102  A    between atoms: _264  and  _267
REMARK  103  A    between atoms: _267  and  _268
REMARK  104  A    between atoms: _273  and  _274
REMARK  105  A    between atoms: _276  and  _278
REMARK  106  A    between atoms: _278  and  _279
REMARK  107  A    between atoms: _278  and  _281
REMARK  108  A    between atoms: _284  and  _286
REMARK  109  A    between atoms: _286  and  _287
REMARK  110  A    between atoms: _289  and  _291
REMARK  111  A    between atoms: _291  and  _292
REMARK  112  A    between atoms: _291  and  _294
REMARK  113  A    between atoms: _294  and  _295
REMARK  114  A    between atoms: _300  and  _302
REMARK  115  A    between atoms: _302  and  _303
REMARK  116  A    between atoms: _306  and  _308
REMARK  117  A    between atoms: _308  and  _309
REMARK  118  A    between atoms: _308  and  _311
REMARK  119  A    between atoms: _311  and  _312
REMARK  120  A    between atoms: _317  and  _319
REMARK  121  A    between atoms: _319  and  _320
REMARK  122  A    between atoms: _319  and  _322
REMARK  123  A    between atoms: _322  and  _323
REMARK  124  A    between atoms: _323  and  _324
REMARK  125  A    between atoms: _327  and  _329
REMARK  126  A    between atoms: _329  and  _330
REMARK  127  A    between atoms: _329  and  _332
REMARK  128  A    between atoms: _332  and  _333
REMARK  129  A    between atoms: _333  and  _334
REMARK  130  A    between atoms: _334  and  _335
REMARK  131  A    between atoms: _335  and  CA_419
REMARK  132  A    between atoms: _337  and  _339
REMARK  133  A    between atoms: _339  and  _340
REMARK  134  A    between atoms: _339  and  _342
REMARK  135  A    between atoms: _342  and  _343
REMARK  136  A    between atoms: _345  and  _347
REMARK  137  A    between atoms: _347  and  _348
REMARK  138  A    between atoms: _351  and  _353
REMARK  139  A    between atoms: _353  and  _354
REMARK  140  A    between atoms: _356  and  _358
REMARK  141  A    between atoms: _358  and  _359
REMARK  142  A    between atoms: _358  and  _361
REMARK  143  A    between atoms: _361  and  _362
REMARK  144  A    between atoms: _362  and  _363
REMARK  145  A    between atoms: _363  and  _365
REMARK  146  A    between atoms: _365  and  CA_419
REMARK  147  A    between atoms: _366  and  _368
REMARK  148  A    between atoms: _368  and  _369
REMARK  149  A    between atoms: _368  and  _371
REMARK  150  A    between atoms: _371  and  _372
REMARK  151  A    between atoms: _377  and  _378
REMARK  152  A    between atoms: _380  and  _382
REMARK  153  A    between atoms: _382  and  _383
REMARK  154  A    between atoms: _382  and  _385
REMARK  155  A    between atoms: _385  and  _386
REMARK  156  A    between atoms: _392  and  _394
REMARK  157  A    between atoms: _394  and  _395
REMARK  158  A    between atoms: _394  and  _397
REMARK  159  A    between atoms: _397  and  _398
REMARK  160  A    between atoms: _401  and  _403
REMARK  161  A    between atoms: _403  and  _404
REMARK  162  A    between atoms: _403  and  _406
REMARK  163  A    between atoms: _406  and  _407
REMARK  164  A    between atoms: _410  and  _412
REMARK  165  A    between atoms: _412  and  _413
REMARK  166  A    between atoms: _412  and  _415
REMARK  167  A    between atoms: _415  and  _416
REMARK  168  A    between atoms: _416  and  _417
REMARK                            x       y       z     vdW  Elec       q    Type
REMARK                         _______ _______ _______ _____ _____    ______ ____
ROOT
ATOM      1  O   HOH     1      20.153  42.273  68.245  0.00  0.00    +0.000 OA
ENDROOT
TORSDOF 0
REMARK  Name = ../refined-set-2016/2jkp/2jkp_pocket.pdb
REMARK  168 active torsions:
REMARK  status: ('A' for Active; 'I' for Inactive)
REMARK    1  A    between atoms: _1  and  _3
REMARK    2  A    between atoms: _3  and  _4
REMARK    3  A    between atoms: _3  and  _6
REMARK    4  A    between atoms: _6  and  _7
REMARK    5  A    between atoms: _7  and  _8
REMARK    6  A    between atoms: _11  and  _13
REMARK    7  A    between atoms: _13  and  _14
REMARK    8  A    between atoms: _13  and  _16
REMARK    9  A    between atoms: _16  and  _17
REMARK   10  A    between atoms: _19  and  _21
REMARK   11  A    between atoms: _21  and  _22
REMARK   12  A    between atoms: _21  and  _24
REMARK   13  A    between atoms: _24  and  _25
REMARK   14  A    between atoms: _30  and  _31
REMARK   15  A    between atoms: _33  and  _35
REMARK   16  A    between atoms: _35  and  _36
REMARK   17  A    between atoms: _35  and  _38
REMARK   18  A    between atoms: _41  and  _43
REMARK   19  A    between atoms: _43  and  _44
REMARK   20  A    between atoms: _43  and  _46
REMARK   21  A    between atoms: _46  and  _47
REMARK   22  A    between atoms: _57  and  _59
REMARK   23  A    between atoms: _59  and  _60
REMARK   24  A    between atoms: _59  and  _62
REMARK   25  A    between atoms: _62  and  _63
REMARK   26  A    between atoms: _73  and  _75
REMARK   27  A    between atoms: _75  and  _76
REMARK   28  A    between atoms: _75  and  _78
REMARK   29  A    between atoms: _78  and  _79
REMARK   30  A    between atoms: _79  and  _80
REMARK   31  A    between atoms: _82  and  _84
REMARK   32  A    between atoms: _84  and  _85
REMARK   33  A    between atoms: _84  and  _87
REMARK   34  A    between atoms: _87  and  _88
REMARK   35  A    between atoms: _91  and  _93
REMARK   36  A    between atoms: _93  and  _94
REMARK   37  A    between atoms: _93  and  _96
REMARK   38  A    between atoms: _96  and  _97
REMARK   39  A    between atoms: _107  and  _109
REMARK   40  A    between atoms: _109  and  _110
REMARK   41  A    between atoms: _109  and  _112
REMARK   42  A    between atoms: _112  and  _113
REMARK   43  A    between atoms: _116  and  _118
REMARK   44  A    between atoms: _118  and  _119
REMARK   45  A    between atoms: _118  and  _121
REMARK   46  A    between atoms: _121  and  _122
REMARK   47  A    between atoms: _122  and  _123
REMARK   48  A    between atoms: _126  and  _128
REMARK   49  A    between atoms: _128  and  _129
REMARK   50  A    between atoms: _131  and  _133
REMARK   51  A    between atoms: _133  and  _134
REMARK   52  A    between atoms: _133  and  _136
REMARK   53  A    between atoms: _136  and  _137
REMARK   54  A    between atoms: _147  and  _149
REMARK   55  A    between atoms: _149  and  _150
REMARK   56  A    between atoms: _149  and  _152
REMARK   57  A    between atoms: _152  and  _153
REMARK   58  A    between atoms: _163  and  _165
REMARK   59  A    between atoms: _165  and  _166
REMARK   60  A    between atoms: _165  and  _168
REMARK   61  A    between atoms: _168  and  _169
REMARK   62  A    between atoms: _175  and  _177
REMARK   63  A    between atoms: _177  and  _178
REMARK   64  A    between atoms: _177  and  _180
REMARK   65  A    between atoms: _180  and  _181
REMARK   66  A    between atoms: _187  and  _189
REMARK   67  A    between atoms: _189  and  _190
REMARK   68  A    between atoms: _189  and  _192
REMARK   69  A    between atoms: _192  and  _193
REMARK   70  A    between atoms: _198  and  _200
REMARK   71  A    between atoms: _200  and  _201
REMARK   72  A    between atoms: _200  and  _203
REMARK   73  A    between atoms: _203  and  _204
REMARK   74  A    between atoms: _209  and  _211
REMARK   75  A    between atoms: _211  and  _212
REMARK   76  A    between atoms: _211  and  _214
REMARK   77  A    between atoms: _214  and  _215
REMARK   78  A    between atoms: _215  and  _216
REMARK   79  A    between atoms: _219  and  _221
REMARK   80  A    between atoms: _221  and  _222
REMARK   81  A    between atoms: _221  and  _224
REMARK   82  A    between atoms: _224  and  _225
REMARK   83  A    between atoms: _228  and  _230
REMARK   84  A    between atoms: _230  and  _231
REMARK   85  A    between atoms: _230  and  _233
REMARK   86  A    between atoms: _233  and  _234
REMARK   87  A    between atoms: _236  and  _238
REMARK   88  A    between atoms: _238  and  _239
REMARK   89  A    between atoms: _238  and  _241
REMARK   90  A    between atoms: _241  and  _242
REMARK   91  A    between atoms: _242  and  _243
REMARK   92  A    between atoms: _243  and  _244
REMARK   93  A    between atoms: _244  and  _245
REMARK   94  A    between atoms: _249  and  _251
REMARK   95  A    between atoms: _251  and  _252
REMARK   96  A    between atoms: _251  and  _254
REMARK   97  A    between atoms: _254  and  _255
REMARK   98  A    between atoms: _257  and  _259
REMARK   99  A    between atoms: _259  and  _260
REMARK  100  A    between atoms: _262  and  _264
REMARK  101  A    between atoms: _264  and  _265
REMARK  102  A    between atoms: _264  and  _267
REMARK  103  A    between atoms: _267  and  _268
REMARK  104  A    between atoms: _273  and  _274
REMARK  105  A    between atoms: _276  and  _278
REMARK  106  A    between atoms: _278  and  _279
REMARK  107  A    between atoms: _278  and  _281
REMARK  108  A    between atoms: _284  and  _286
REMARK  109  A    between atoms: _286  and  _287
REMARK  110  A    between atoms: _289  and  _291
REMARK  111  A    between atoms: _291  and  _292
REMARK  112  A    between atoms: _291  and  _294
REMARK  113  A    between atoms: _294  and  _295
REMARK  114  A    between atoms: _300  and  _302
REMARK  115  A    between atoms: _302  and  _303
REMARK  116  A    between atoms: _306  and  _308
REMARK  117  A    between atoms: _308  and  _309
REMARK  118  A    between atoms: _308  and  _311
REMARK  119  A    between atoms: _311  and  _312
REMARK  120  A    between atoms: _317  and  _319
REMARK  121  A    between atoms: _319  and  _320
REMARK  122  A    between atoms: _319  and  _322
REMARK  123  A    between atoms: _322  and  _323
REMARK  124  A    between atoms: _323  and  _324
REMARK  125  A    between atoms: _327  and  _329
REMARK  126  A    between atoms: _329  and  _330
REMARK  127  A    between atoms: _329  and  _332
REMARK  128  A    between atoms: _332  and  _333
REMARK  129  A    between atoms: _333  and  _334
REMARK  130  A    between atoms: _334  and  _335
REMARK  131  A    between atoms: _335  and  CA_419
REMARK  132  A    between atoms: _337  and  _339
REMARK  133  A    between atoms: _339  and  _340
REMARK  134  A    between atoms: _339  and  _342
REMARK  135  A    between atoms: _342  and  _343
REMARK  136  A    between atoms: _345  and  _347
REMARK  137  A    between atoms: _347  and  _348
REMARK  138  A    between atoms: _351  and  _353
REMARK  139  A    between atoms: _353  and  _354
REMARK  140  A    between atoms: _356  and  _358
REMARK  141  A    between atoms: _358  and  _359
REMARK  142  A    between atoms: _358  and  _361
REMARK  143  A    between atoms: _361  and  _362
REMARK  144  A    between atoms: _362  and  _363
REMARK  145  A    between atoms: _363  and  _365
REMARK  146  A    between atoms: _365  and  CA_419
REMARK  147  A    between atoms: _366  and  _368
REMARK  148  A    between atoms: _368  and  _369
REMARK  149  A    between atoms: _368  and  _371
REMARK  150  A    between atoms: _371  and  _372
REMARK  151  A    between atoms: _377  and  _378
REMARK  152  A    between atoms: _380  and  _382
REMARK  153  A    between atoms: _382  and  _383
REMARK  154  A    between atoms: _382  and  _385
REMARK  155  A    between atoms: _385  and  _386
REMARK  156  A    between atoms: _392  and  _394
REMARK  157  A    between atoms: _394  and  _395
REMARK  158  A    between atoms: _394  and  _397
REMARK  159  A    between atoms: _397  and  _398
REMARK  160  A    between atoms: _401  and  _403
REMARK  161  A    between atoms: _403  and  _404
REMARK  162  A    between atoms: _403  and  _406
REMARK  163  A    between atoms: _406  and  _407
REMARK  164  A    between atoms: _410  and  _412
REMARK  165  A    between atoms: _412  and  _413
REMARK  166  A    between atoms: _412  and  _415
REMARK  167  A    between atoms: _415  and  _416
REMARK  168  A    between atoms: _416  and  _417
REMARK                            x       y       z     vdW  Elec       q    Type
REMARK                         _______ _______ _______ _____ _____    ______ ____
ROOT
ATOM      1  O   HOH     1      22.651  36.763  61.819  0.00  0.00    +0.000 OA
ENDROOT
TORSDOF 0
REMARK  Name = ../refined-set-2016/2jkp/2jkp_pocket.pdb
REMARK  168 active torsions:
REMARK  status: ('A' for Active; 'I' for Inactive)
REMARK    1  A    between atoms: _1  and  _3
REMARK    2  A    between atoms: _3  and  _4
REMARK    3  A    between atoms: _3  and  _6
REMARK    4  A    between atoms: _6  and  _7
REMARK    5  A    between atoms: _7  and  _8
REMARK    6  A    between atoms: _11  and  _13
REMARK    7  A    between atoms: _13  and  _14
REMARK    8  A    between atoms: _13  and  _16
REMARK    9  A    between atoms: _16  and  _17
REMARK   10  A    between atoms: _19  and  _21
REMARK   11  A    between atoms: _21  and  _22
REMARK   12  A    between atoms: _21  and  _24
REMARK   13  A    between atoms: _24  and  _25
REMARK   14  A    between atoms: _30  and  _31
REMARK   15  A    between atoms: _33  and  _35
REMARK   16  A    between atoms: _35  and  _36
REMARK   17  A    between atoms: _35  and  _38
REMARK   18  A    between atoms: _41  and  _43
REMARK   19  A    between atoms: _43  and  _44
REMARK   20  A    between atoms: _43  and  _46
REMARK   21  A    between atoms: _46  and  _47
REMARK   22  A    between atoms: _57  and  _59
REMARK   23  A    between atoms: _59  and  _60
REMARK   24  A    between atoms: _59  and  _62
REMARK   25  A    between atoms: _62  and  _63
REMARK   26  A    between atoms: _73  and  _75
REMARK   27  A    between atoms: _75  and  _76
REMARK   28  A    between atoms: _75  and  _78
REMARK   29  A    between atoms: _78  and  _79
REMARK   30  A    between atoms: _79  and  _80
REMARK   31  A    between atoms: _82  and  _84
REMARK   32  A    between atoms: _84  and  _85
REMARK   33  A    between atoms: _84  and  _87
REMARK   34  A    between atoms: _87  and  _88
REMARK   35  A    between atoms: _91  and  _93
REMARK   36  A    between atoms: _93  and  _94
REMARK   37  A    between atoms: _93  and  _96
REMARK   38  A    between atoms: _96  and  _97
REMARK   39  A    between atoms: _107  and  _109
REMARK   40  A    between atoms: _109  and  _110
REMARK   41  A    between atoms: _109  and  _112
REMARK   42  A    between atoms: _112  and  _113
REMARK   43  A    between atoms: _116  and  _118
REMARK   44  A    between atoms: _118  and  _119
REMARK   45  A    between atoms: _118  and  _121
REMARK   46  A    between atoms: _121  and  _122
REMARK   47  A    between atoms: _122  and  _123
REMARK   48  A    between atoms: _126  and  _128
REMARK   49  A    between atoms: _128  and  _129
REMARK   50  A    between atoms: _131  and  _133
REMARK   51  A    between atoms: _133  and  _134
REMARK   52  A    between atoms: _133  and  _136
REMARK   53  A    between atoms: _136  and  _137
REMARK   54  A    between atoms: _147  and  _149
REMARK   55  A    between atoms: _149  and  _150
REMARK   56  A    between atoms: _149  and  _152
REMARK   57  A    between atoms: _152  and  _153
REMARK   58  A    between atoms: _163  and  _165
REMARK   59  A    between atoms: _165  and  _166
REMARK   60  A    between atoms: _165  and  _168
REMARK   61  A    between atoms: _168  and  _169
REMARK   62  A    between atoms: _175  and  _177
REMARK   63  A    between atoms: _177  and  _178
REMARK   64  A    between atoms: _177  and  _180
REMARK   65  A    between atoms: _180  and  _181
REMARK   66  A    between atoms: _187  and  _189
REMARK   67  A    between atoms: _189  and  _190
REMARK   68  A    between atoms: _189  and  _192
REMARK   69  A    between atoms: _192  and  _193
REMARK   70  A    between atoms: _198  and  _200
REMARK   71  A    between atoms: _200  and  _201
REMARK   72  A    between atoms: _200  and  _203
REMARK   73  A    between atoms: _203  and  _204
REMARK   74  A    between atoms: _209  and  _211
REMARK   75  A    between atoms: _211  and  _212
REMARK   76  A    between atoms: _211  and  _214
REMARK   77  A    between atoms: _214  and  _215
REMARK   78  A    between atoms: _215  and  _216
REMARK   79  A    between atoms: _219  and  _221
REMARK   80  A    between atoms: _221  and  _222
REMARK   81  A    between atoms: _221  and  _224
REMARK   82  A    between atoms: _224  and  _225
REMARK   83  A    between atoms: _228  and  _230
REMARK   84  A    between atoms: _230  and  _231
REMARK   85  A    between atoms: _230  and  _233
REMARK   86  A    between atoms: _233  and  _234
REMARK   87  A    between atoms: _236  and  _238
REMARK   88  A    between atoms: _238  and  _239
REMARK   89  A    between atoms: _238  and  _241
REMARK   90  A    between atoms: _241  and  _242
REMARK   91  A    between atoms: _242  and  _243
REMARK   92  A    between atoms: _243  and  _244
REMARK   93  A    between atoms: _244  and  _245
REMARK   94  A    between atoms: _249  and  _251
REMARK   95  A    between atoms: _251  and  _252
REMARK   96  A    between atoms: _251  and  _254
REMARK   97  A    between atoms: _254  and  _255
REMARK   98  A    between atoms: _257  and  _259
REMARK   99  A    between atoms: _259  and  _260
REMARK  100  A    between atoms: _262  and  _264
REMARK  101  A    between atoms: _264  and  _265
REMARK  102  A    between atoms: _264  and  _267
REMARK  103  A    between atoms: _267  and  _268
REMARK  104  A    between atoms: _273  and  _274
REMARK  105  A    between atoms: _276  and  _278
REMARK  106  A    between atoms: _278  and  _279
REMARK  107  A    between atoms: _278  and  _281
REMARK  108  A    between atoms: _284  and  _286
REMARK  109  A    between atoms: _286  and  _287
REMARK  110  A    between atoms: _289  and  _291
REMARK  111  A    between atoms: _291  and  _292
REMARK  112  A    between atoms: _291  and  _294
REMARK  113  A    between atoms: _294  and  _295
REMARK  114  A    between atoms: _300  and  _302
REMARK  115  A    between atoms: _302  and  _303
REMARK  116  A    between atoms: _306  and  _308
REMARK  117  A    between atoms: _308  and  _309
REMARK  118  A    between atoms: _308  and  _311
REMARK  119  A    between atoms: _311  and  _312
REMARK  120  A    between atoms: _317  and  _319
REMARK  121  A    between atoms: _319  and  _320
REMARK  122  A    between atoms: _319  and  _322
REMARK  123  A    between atoms: _322  and  _323
REMARK  124  A    between atoms: _323  and  _324
REMARK  125  A    between atoms: _327  and  _329
REMARK  126  A    between atoms: _329  and  _330
REMARK  127  A    between atoms: _329  and  _332
REMARK  128  A    between atoms: _332  and  _333
REMARK  129  A    between atoms: _333  and  _334
REMARK  130  A    between atoms: _334  and  _335
REMARK  131  A    between atoms: _335  and  CA_419
REMARK  132  A    between atoms: _337  and  _339
REMARK  133  A    between atoms: _339  and  _340
REMARK  134  A    between atoms: _339  and  _342
REMARK  135  A    between atoms: _342  and  _343
REMARK  136  A    between atoms: _345  and  _347
REMARK  137  A    between atoms: _347  and  _348
REMARK  138  A    between atoms: _351  and  _353
REMARK  139  A    between atoms: _353  and  _354
REMARK  140  A    between atoms: _356  and  _358
REMARK  141  A    between atoms: _358  and  _359
REMARK  142  A    between atoms: _358  and  _361
REMARK  143  A    between atoms: _361  and  _362
REMARK  144  A    between atoms: _362  and  _363
REMARK  145  A    between atoms: _363  and  _365
REMARK  146  A    between atoms: _365  and  CA_419
REMARK  147  A    between atoms: _366  and  _368
REMARK  148  A    between atoms: _368  and  _369
REMARK  149  A    between atoms: _368  and  _371
REMARK  150  A    between atoms: _371  and  _372
REMARK  151  A    between atoms: _377  and  _378
REMARK  152  A    between atoms: _380  and  _382
REMARK  153  A    between atoms: _382  and  _383
REMARK  154  A    between atoms: _382  and  _385
REMARK  155  A    between atoms: _385  and  _386
REMARK  156  A    between atoms: _392  and  _394
REMARK  157  A    between atoms: _394  and  _395
REMARK  158  A    between atoms: _394  and  _397
REMARK  159  A    between atoms: _397  and  _398
REMARK  160  A    between atoms: _401  and  _403
REMARK  161  A    between atoms: _403  and  _404
REMARK  162  A    between atoms: _403  and  _406
REMARK  163  A    between atoms: _406  and  _407
REMARK  164  A    between atoms: _410  and  _412
REMARK  165  A    between atoms: _412  and  _413
REMARK  166  A    between atoms: _412  and  _415
REMARK  167  A    between atoms: _415  and  _416
REMARK  168  A    between atoms: _416  and  _417
REMARK                            x       y       z     vdW  Elec       q    Type
REMARK                         _______ _______ _______ _____ _____    ______ ____
ROOT
ATOM      1  O   HOH     1      20.314  39.669  69.021  0.00  0.00    +0.000 OA
ENDROOT
TORSDOF 0
REMARK  Name = ../refined-set-2016/2jkp/2jkp_pocket.pdb
REMARK  168 active torsions:
REMARK  status: ('A' for Active; 'I' for Inactive)
REMARK    1  A    between atoms: _1  and  _3
REMARK    2  A    between atoms: _3  and  _4
REMARK    3  A    between atoms: _3  and  _6
REMARK    4  A    between atoms: _6  and  _7
REMARK    5  A    between atoms: _7  and  _8
REMARK    6  A    between atoms: _11  and  _13
REMARK    7  A    between atoms: _13  and  _14
REMARK    8  A    between atoms: _13  and  _16
REMARK    9  A    between atoms: _16  and  _17
REMARK   10  A    between atoms: _19  and  _21
REMARK   11  A    between atoms: _21  and  _22
REMARK   12  A    between atoms: _21  and  _24
REMARK   13  A    between atoms: _24  and  _25
REMARK   14  A    between atoms: _30  and  _31
REMARK   15  A    between atoms: _33  and  _35
REMARK   16  A    between atoms: _35  and  _36
REMARK   17  A    between atoms: _35  and  _38
REMARK   18  A    between atoms: _41  and  _43
REMARK   19  A    between atoms: _43  and  _44
REMARK   20  A    between atoms: _43  and  _46
REMARK   21  A    between atoms: _46  and  _47
REMARK   22  A    between atoms: _57  and  _59
REMARK   23  A    between atoms: _59  and  _60
REMARK   24  A    between atoms: _59  and  _62
REMARK   25  A    between atoms: _62  and  _63
REMARK   26  A    between atoms: _73  and  _75
REMARK   27  A    between atoms: _75  and  _76
REMARK   28  A    between atoms: _75  and  _78
REMARK   29  A    between atoms: _78  and  _79
REMARK   30  A    between atoms: _79  and  _80
REMARK   31  A    between atoms: _82  and  _84
REMARK   32  A    between atoms: _84  and  _85
REMARK   33  A    between atoms: _84  and  _87
REMARK   34  A    between atoms: _87  and  _88
REMARK   35  A    between atoms: _91  and  _93
REMARK   36  A    between atoms: _93  and  _94
REMARK   37  A    between atoms: _93  and  _96
REMARK   38  A    between atoms: _96  and  _97
REMARK   39  A    between atoms: _107  and  _109
REMARK   40  A    between atoms: _109  and  _110
REMARK   41  A    between atoms: _109  and  _112
REMARK   42  A    between atoms: _112  and  _113
REMARK   43  A    between atoms: _116  and  _118
REMARK   44  A    between atoms: _118  and  _119
REMARK   45  A    between atoms: _118  and  _121
REMARK   46  A    between atoms: _121  and  _122
REMARK   47  A    between atoms: _122  and  _123
REMARK   48  A    between atoms: _126  and  _128
REMARK   49  A    between atoms: _128  and  _129
REMARK   50  A    between atoms: _131  and  _133
REMARK   51  A    between atoms: _133  and  _134
REMARK   52  A    between atoms: _133  and  _136
REMARK   53  A    between atoms: _136  and  _137
REMARK   54  A    between atoms: _147  and  _149
REMARK   55  A    between atoms: _149  and  _150
REMARK   56  A    between atoms: _149  and  _152
REMARK   57  A    between atoms: _152  and  _153
REMARK   58  A    between atoms: _163  and  _165
REMARK   59  A    between atoms: _165  and  _166
REMARK   60  A    between atoms: _165  and  _168
REMARK   61  A    between atoms: _168  and  _169
REMARK   62  A    between atoms: _175  and  _177
REMARK   63  A    between atoms: _177  and  _178
REMARK   64  A    between atoms: _177  and  _180
REMARK   65  A    between atoms: _180  and  _181
REMARK   66  A    between atoms: _187  and  _189
REMARK   67  A    between atoms: _189  and  _190
REMARK   68  A    between atoms: _189  and  _192
REMARK   69  A    between atoms: _192  and  _193
REMARK   70  A    between atoms: _198  and  _200
REMARK   71  A    between atoms: _200  and  _201
REMARK   72  A    between atoms: _200  and  _203
REMARK   73  A    between atoms: _203  and  _204
REMARK   74  A    between atoms: _209  and  _211
REMARK   75  A    between atoms: _211  and  _212
REMARK   76  A    between atoms: _211  and  _214
REMARK   77  A    between atoms: _214  and  _215
REMARK   78  A    between atoms: _215  and  _216
REMARK   79  A    between atoms: _219  and  _221
REMARK   80  A    between atoms: _221  and  _222
REMARK   81  A    between atoms: _221  and  _224
REMARK   82  A    between atoms: _224  and  _225
REMARK   83  A    between atoms: _228  and  _230
REMARK   84  A    between atoms: _230  and  _231
REMARK   85  A    between atoms: _230  and  _233
REMARK   86  A    between atoms: _233  and  _234
REMARK   87  A    between atoms: _236  and  _238
REMARK   88  A    between atoms: _238  and  _239
REMARK   89  A    between atoms: _238  and  _241
REMARK   90  A    between atoms: _241  and  _242
REMARK   91  A    between atoms: _242  and  _243
REMARK   92  A    between atoms: _243  and  _244
REMARK   93  A    between atoms: _244  and  _245
REMARK   94  A    between atoms: _249  and  _251
REMARK   95  A    between atoms: _251  and  _252
REMARK   96  A    between atoms: _251  and  _254
REMARK   97  A    between atoms: _254  and  _255
REMARK   98  A    between atoms: _257  and  _259
REMARK   99  A    between atoms: _259  and  _260
REMARK  100  A    between atoms: _262  and  _264
REMARK  101  A    between atoms: _264  and  _265
REMARK  102  A    between atoms: _264  and  _267
REMARK  103  A    between atoms: _267  and  _268
REMARK  104  A    between atoms: _273  and  _274
REMARK  105  A    between atoms: _276  and  _278
REMARK  106  A    between atoms: _278  and  _279
REMARK  107  A    between atoms: _278  and  _281
REMARK  108  A    between atoms: _284  and  _286
REMARK  109  A    between atoms: _286  and  _287
REMARK  110  A    between atoms: _289  and  _291
REMARK  111  A    between atoms: _291  and  _292
REMARK  112  A    between atoms: _291  and  _294
REMARK  113  A    between atoms: _294  and  _295
REMARK  114  A    between atoms: _300  and  _302
REMARK  115  A    between atoms: _302  and  _303
REMARK  116  A    between atoms: _306  and  _308
REMARK  117  A    between atoms: _308  and  _309
REMARK  118  A    between atoms: _308  and  _311
REMARK  119  A    between atoms: _311  and  _312
REMARK  120  A    between atoms: _317  and  _319
REMARK  121  A    between atoms: _319  and  _320
REMARK  122  A    between atoms: _319  and  _322
REMARK  123  A    between atoms: _322  and  _323
REMARK  124  A    between atoms: _323  and  _324
REMARK  125  A    between atoms: _327  and  _329
REMARK  126  A    between atoms: _329  and  _330
REMARK  127  A    between atoms: _329  and  _332
REMARK  128  A    between atoms: _332  and  _333
REMARK  129  A    between atoms: _333  and  _334
REMARK  130  A    between atoms: _334  and  _335
REMARK  131  A    between atoms: _335  and  CA_419
REMARK  132  A    between atoms: _337  and  _339
REMARK  133  A    between atoms: _339  and  _340
REMARK  134  A    between atoms: _339  and  _342
REMARK  135  A    between atoms: _342  and  _343
REMARK  136  A    between atoms: _345  and  _347
REMARK  137  A    between atoms: _347  and  _348
REMARK  138  A    between atoms: _351  and  _353
REMARK  139  A    between atoms: _353  and  _354
REMARK  140  A    between atoms: _356  and  _358
REMARK  141  A    between atoms: _358  and  _359
REMARK  142  A    between atoms: _358  and  _361
REMARK  143  A    between atoms: _361  and  _362
REMARK  144  A    between atoms: _362  and  _363
REMARK  145  A    between atoms: _363  and  _365
REMARK  146  A    between atoms: _365  and  CA_419
REMARK  147  A    between atoms: _366  and  _368
REMARK  148  A    between atoms: _368  and  _369
REMARK  149  A    between atoms: _368  and  _371
REMARK  150  A    between atoms: _371  and  _372
REMARK  151  A    between atoms: _377  and  _378
REMARK  152  A    between atoms: _380  and  _382
REMARK  153  A    between atoms: _382  and  _383
REMARK  154  A    between atoms: _382  and  _385
REMARK  155  A    between atoms: _385  and  _386
REMARK  156  A    between atoms: _392  and  _394
REMARK  157  A    between atoms: _394  and  _395
REMARK  158  A    between atoms: _394  and  _397
REMARK  159  A    between atoms: _397  and  _398
REMARK  160  A    between atoms: _401  and  _403
REMARK  161  A    between atoms: _403  and  _404
REMARK  162  A    between atoms: _403  and  _406
REMARK  163  A    between atoms: _406  and  _407
REMARK  164  A    between atoms: _410  and  _412
REMARK  165  A    between atoms: _412  and  _413
REMARK  166  A    between atoms: _412  and  _415
REMARK  167  A    between atoms: _415  and  _416
REMARK  168  A    between atoms: _416  and  _417
REMARK                            x       y       z     vdW  Elec       q    Type
REMARK                         _______ _______ _______ _____ _____    ______ ____
ROOT
ATOM      1  O   HOH     1      18.178  49.388  66.067  0.00  0.00    +0.000 OA
ENDROOT
TORSDOF 0
REMARK  Name = ../refined-set-2016/2jkp/2jkp_pocket.pdb
REMARK  168 active torsions:
REMARK  status: ('A' for Active; 'I' for Inactive)
REMARK    1  A    between atoms: _1  and  _3
REMARK    2  A    between atoms: _3  and  _4
REMARK    3  A    between atoms: _3  and  _6
REMARK    4  A    between atoms: _6  and  _7
REMARK    5  A    between atoms: _7  and  _8
REMARK    6  A    between atoms: _11  and  _13
REMARK    7  A    between atoms: _13  and  _14
REMARK    8  A    between atoms: _13  and  _16
REMARK    9  A    between atoms: _16  and  _17
REMARK   10  A    between atoms: _19  and  _21
REMARK   11  A    between atoms: _21  and  _22
REMARK   12  A    between atoms: _21  and  _24
REMARK   13  A    between atoms: _24  and  _25
REMARK   14  A    between atoms: _30  and  _31
REMARK   15  A    between atoms: _33  and  _35
REMARK   16  A    between atoms: _35  and  _36
REMARK   17  A    between atoms: _35  and  _38
REMARK   18  A    between atoms: _41  and  _43
REMARK   19  A    between atoms: _43  and  _44
REMARK   20  A    between atoms: _43  and  _46
REMARK   21  A    between atoms: _46  and  _47
REMARK   22  A    between atoms: _57  and  _59
REMARK   23  A    between atoms: _59  and  _60
REMARK   24  A    between atoms: _59  and  _62
REMARK   25  A    between atoms: _62  and  _63
REMARK   26  A    between atoms: _73  and  _75
REMARK   27  A    between atoms: _75  and  _76
REMARK   28  A    between atoms: _75  and  _78
REMARK   29  A    between atoms: _78  and  _79
REMARK   30  A    between atoms: _79  and  _80
REMARK   31  A    between atoms: _82  and  _84
REMARK   32  A    between atoms: _84  and  _85
REMARK   33  A    between atoms: _84  and  _87
REMARK   34  A    between atoms: _87  and  _88
REMARK   35  A    between atoms: _91  and  _93
REMARK   36  A    between atoms: _93  and  _94
REMARK   37  A    between atoms: _93  and  _96
REMARK   38  A    between atoms: _96  and  _97
REMARK   39  A    between atoms: _107  and  _109
REMARK   40  A    between atoms: _109  and  _110
REMARK   41  A    between atoms: _109  and  _112
REMARK   42  A    between atoms: _112  and  _113
REMARK   43  A    between atoms: _116  and  _118
REMARK   44  A    between atoms: _118  and  _119
REMARK   45  A    between atoms: _118  and  _121
REMARK   46  A    between atoms: _121  and  _122
REMARK   47  A    between atoms: _122  and  _123
REMARK   48  A    between atoms: _126  and  _128
REMARK   49  A    between atoms: _128  and  _129
REMARK   50  A    between atoms: _131  and  _133
REMARK   51  A    between atoms: _133  and  _134
REMARK   52  A    between atoms: _133  and  _136
REMARK   53  A    between atoms: _136  and  _137
REMARK   54  A    between atoms: _147  and  _149
REMARK   55  A    between atoms: _149  and  _150
REMARK   56  A    between atoms: _149  and  _152
REMARK   57  A    between atoms: _152  and  _153
REMARK   58  A    between atoms: _163  and  _165
REMARK   59  A    between atoms: _165  and  _166
REMARK   60  A    between atoms: _165  and  _168
REMARK   61  A    between atoms: _168  and  _169
REMARK   62  A    between atoms: _175  and  _177
REMARK   63  A    between atoms: _177  and  _178
REMARK   64  A    between atoms: _177  and  _180
REMARK   65  A    between atoms: _180  and  _181
REMARK   66  A    between atoms: _187  and  _189
REMARK   67  A    between atoms: _189  and  _190
REMARK   68  A    between atoms: _189  and  _192
REMARK   69  A    between atoms: _192  and  _193
REMARK   70  A    between atoms: _198  and  _200
REMARK   71  A    between atoms: _200  and  _201
REMARK   72  A    between atoms: _200  and  _203
REMARK   73  A    between atoms: _203  and  _204
REMARK   74  A    between atoms: _209  and  _211
REMARK   75  A    between atoms: _211  and  _212
REMARK   76  A    between atoms: _211  and  _214
REMARK   77  A    between atoms: _214  and  _215
REMARK   78  A    between atoms: _215  and  _216
REMARK   79  A    between atoms: _219  and  _221
REMARK   80  A    between atoms: _221  and  _222
REMARK   81  A    between atoms: _221  and  _224
REMARK   82  A    between atoms: _224  and  _225
REMARK   83  A    between atoms: _228  and  _230
REMARK   84  A    between atoms: _230  and  _231
REMARK   85  A    between atoms: _230  and  _233
REMARK   86  A    between atoms: _233  and  _234
REMARK   87  A    between atoms: _236  and  _238
REMARK   88  A    between atoms: _238  and  _239
REMARK   89  A    between atoms: _238  and  _241
REMARK   90  A    between atoms: _241  and  _242
REMARK   91  A    between atoms: _242  and  _243
REMARK   92  A    between atoms: _243  and  _244
REMARK   93  A    between atoms: _244  and  _245
REMARK   94  A    between atoms: _249  and  _251
REMARK   95  A    between atoms: _251  and  _252
REMARK   96  A    between atoms: _251  and  _254
REMARK   97  A    between atoms: _254  and  _255
REMARK   98  A    between atoms: _257  and  _259
REMARK   99  A    between atoms: _259  and  _260
REMARK  100  A    between atoms: _262  and  _264
REMARK  101  A    between atoms: _264  and  _265
REMARK  102  A    between atoms: _264  and  _267
REMARK  103  A    between atoms: _267  and  _268
REMARK  104  A    between atoms: _273  and  _274
REMARK  105  A    between atoms: _276  and  _278
REMARK  106  A    between atoms: _278  and  _279
REMARK  107  A    between atoms: _278  and  _281
REMARK  108  A    between atoms: _284  and  _286
REMARK  109  A    between atoms: _286  and  _287
REMARK  110  A    between atoms: _289  and  _291
REMARK  111  A    between atoms: _291  and  _292
REMARK  112  A    between atoms: _291  and  _294
REMARK  113  A    between atoms: _294  and  _295
REMARK  114  A    between atoms: _300  and  _302
REMARK  115  A    between atoms: _302  and  _303
REMARK  116  A    between atoms: _306  and  _308
REMARK  117  A    between atoms: _308  and  _309
REMARK  118  A    between atoms: _308  and  _311
REMARK  119  A    between atoms: _311  and  _312
REMARK  120  A    between atoms: _317  and  _319
REMARK  121  A    between atoms: _319  and  _320
REMARK  122  A    between atoms: _319  and  _322
REMARK  123  A    between atoms: _322  and  _323
REMARK  124  A    between atoms: _323  and  _324
REMARK  125  A    between atoms: _327  and  _329
REMARK  126  A    between atoms: _329  and  _330
REMARK  127  A    between atoms: _329  and  _332
REMARK  128  A    between atoms: _332  and  _333
REMARK  129  A    between atoms: _333  and  _334
REMARK  130  A    between atoms: _334  and  _335
REMARK  131  A    between atoms: _335  and  CA_419
REMARK  132  A    between atoms: _337  and  _339
REMARK  133  A    between atoms: _339  and  _340
REMARK  134  A    between atoms: _339  and  _342
REMARK  135  A    between atoms: _342  and  _343
REMARK  136  A    between atoms: _345  and  _347
REMARK  137  A    between atoms: _347  and  _348
REMARK  138  A    between atoms: _351  and  _353
REMARK  139  A    between atoms: _353  and  _354
REMARK  140  A    between atoms: _356  and  _358
REMARK  141  A    between atoms: _358  and  _359
REMARK  142  A    between atoms: _358  and  _361
REMARK  143  A    between atoms: _361  and  _362
REMARK  144  A    between atoms: _362  and  _363
REMARK  145  A    between atoms: _363  and  _365
REMARK  146  A    between atoms: _365  and  CA_419
REMARK  147  A    between atoms: _366  and  _368
REMARK  148  A    between atoms: _368  and  _369
REMARK  149  A    between atoms: _368  and  _371
REMARK  150  A    between atoms: _371  and  _372
REMARK  151  A    between atoms: _377  and  _378
REMARK  152  A    between atoms: _380  and  _382
REMARK  153  A    between atoms: _382  and  _383
REMARK  154  A    between atoms: _382  and  _385
REMARK  155  A    between atoms: _385  and  _386
REMARK  156  A    between atoms: _392  and  _394
REMARK  157  A    between atoms: _394  and  _395
REMARK  158  A    between atoms: _394  and  _397
REMARK  159  A    between atoms: _397  and  _398
REMARK  160  A    between atoms: _401  and  _403
REMARK  161  A    between atoms: _403  and  _404
REMARK  162  A    between atoms: _403  and  _406
REMARK  163  A    between atoms: _406  and  _407
REMARK  164  A    between atoms: _410  and  _412
REMARK  165  A    between atoms: _412  and  _413
REMARK  166  A    between atoms: _412  and  _415
REMARK  167  A    between atoms: _415  and  _416
REMARK  168  A    between atoms: _416  and  _417
REMARK                            x       y       z     vdW  Elec       q    Type
REMARK                         _______ _______ _______ _____ _____    ______ ____
ROOT
ATOM      1  O   HOH     1      22.324  43.048  74.826  0.00  0.00    +0.000 OA
ENDROOT
TORSDOF 0
REMARK  Name = ../refined-set-2016/2jkp/2jkp_pocket.pdb
REMARK  168 active torsions:
REMARK  status: ('A' for Active; 'I' for Inactive)
REMARK    1  A    between atoms: _1  and  _3
REMARK    2  A    between atoms: _3  and  _4
REMARK    3  A    between atoms: _3  and  _6
REMARK    4  A    between atoms: _6  and  _7
REMARK    5  A    between atoms: _7  and  _8
REMARK    6  A    between atoms: _11  and  _13
REMARK    7  A    between atoms: _13  and  _14
REMARK    8  A    between atoms: _13  and  _16
REMARK    9  A    between atoms: _16  and  _17
REMARK   10  A    between atoms: _19  and  _21
REMARK   11  A    between atoms: _21  and  _22
REMARK   12  A    between atoms: _21  and  _24
REMARK   13  A    between atoms: _24  and  _25
REMARK   14  A    between atoms: _30  and  _31
REMARK   15  A    between atoms: _33  and  _35
REMARK   16  A    between atoms: _35  and  _36
REMARK   17  A    between atoms: _35  and  _38
REMARK   18  A    between atoms: _41  and  _43
REMARK   19  A    between atoms: _43  and  _44
REMARK   20  A    between atoms: _43  and  _46
REMARK   21  A    between atoms: _46  and  _47
REMARK   22  A    between atoms: _57  and  _59
REMARK   23  A    between atoms: _59  and  _60
REMARK   24  A    between atoms: _59  and  _62
REMARK   25  A    between atoms: _62  and  _63
REMARK   26  A    between atoms: _73  and  _75
REMARK   27  A    between atoms: _75  and  _76
REMARK   28  A    between atoms: _75  and  _78
REMARK   29  A    between atoms: _78  and  _79
REMARK   30  A    between atoms: _79  and  _80
REMARK   31  A    between atoms: _82  and  _84
REMARK   32  A    between atoms: _84  and  _85
REMARK   33  A    between atoms: _84  and  _87
REMARK   34  A    between atoms: _87  and  _88
REMARK   35  A    between atoms: _91  and  _93
REMARK   36  A    between atoms: _93  and  _94
REMARK   37  A    between atoms: _93  and  _96
REMARK   38  A    between atoms: _96  and  _97
REMARK   39  A    between atoms: _107  and  _109
REMARK   40  A    between atoms: _109  and  _110
REMARK   41  A    between atoms: _109  and  _112
REMARK   42  A    between atoms: _112  and  _113
REMARK   43  A    between atoms: _116  and  _118
REMARK   44  A    between atoms: _118  and  _119
REMARK   45  A    between atoms: _118  and  _121
REMARK   46  A    between atoms: _121  and  _122
REMARK   47  A    between atoms: _122  and  _123
REMARK   48  A    between atoms: _126  and  _128
REMARK   49  A    between atoms: _128  and  _129
REMARK   50  A    between atoms: _131  and  _133
REMARK   51  A    between atoms: _133  and  _134
REMARK   52  A    between atoms: _133  and  _136
REMARK   53  A    between atoms: _136  and  _137
REMARK   54  A    between atoms: _147  and  _149
REMARK   55  A    between atoms: _149  and  _150
REMARK   56  A    between atoms: _149  and  _152
REMARK   57  A    between atoms: _152  and  _153
REMARK   58  A    between atoms: _163  and  _165
REMARK   59  A    between atoms: _165  and  _166
REMARK   60  A    between atoms: _165  and  _168
REMARK   61  A    between atoms: _168  and  _169
REMARK   62  A    between atoms: _175  and  _177
REMARK   63  A    between atoms: _177  and  _178
REMARK   64  A    between atoms: _177  and  _180
REMARK   65  A    between atoms: _180  and  _181
REMARK   66  A    between atoms: _187  and  _189
REMARK   67  A    between atoms: _189  and  _190
REMARK   68  A    between atoms: _189  and  _192
REMARK   69  A    between atoms: _192  and  _193
REMARK   70  A    between atoms: _198  and  _200
REMARK   71  A    between atoms: _200  and  _201
REMARK   72  A    between atoms: _200  and  _203
REMARK   73  A    between atoms: _203  and  _204
REMARK   74  A    between atoms: _209  and  _211
REMARK   75  A    between atoms: _211  and  _212
REMARK   76  A    between atoms: _211  and  _214
REMARK   77  A    between atoms: _214  and  _215
REMARK   78  A    between atoms: _215  and  _216
REMARK   79  A    between atoms: _219  and  _221
REMARK   80  A    between atoms: _221  and  _222
REMARK   81  A    between atoms: _221  and  _224
REMARK   82  A    between atoms: _224  and  _225
REMARK   83  A    between atoms: _228  and  _230
REMARK   84  A    between atoms: _230  and  _231
REMARK   85  A    between atoms: _230  and  _233
REMARK   86  A    between atoms: _233  and  _234
REMARK   87  A    between atoms: _236  and  _238
REMARK   88  A    between atoms: _238  and  _239
REMARK   89  A    between atoms: _238  and  _241
REMARK   90  A    between atoms: _241  and  _242
REMARK   91  A    between atoms: _242  and  _243
REMARK   92  A    between atoms: _243  and  _244
REMARK   93  A    between atoms: _244  and  _245
REMARK   94  A    between atoms: _249  and  _251
REMARK   95  A    between atoms: _251  and  _252
REMARK   96  A    between atoms: _251  and  _254
REMARK   97  A    between atoms: _254  and  _255
REMARK   98  A    between atoms: _257  and  _259
REMARK   99  A    between atoms: _259  and  _260
REMARK  100  A    between atoms: _262  and  _264
REMARK  101  A    between atoms: _264  and  _265
REMARK  102  A    between atoms: _264  and  _267
REMARK  103  A    between atoms: _267  and  _268
REMARK  104  A    between atoms: _273  and  _274
REMARK  105  A    between atoms: _276  and  _278
REMARK  106  A    between atoms: _278  and  _279
REMARK  107  A    between atoms: _278  and  _281
REMARK  108  A    between atoms: _284  and  _286
REMARK  109  A    between atoms: _286  and  _287
REMARK  110  A    between atoms: _289  and  _291
REMARK  111  A    between atoms: _291  and  _292
REMARK  112  A    between atoms: _291  and  _294
REMARK  113  A    between atoms: _294  and  _295
REMARK  114  A    between atoms: _300  and  _302
REMARK  115  A    between atoms: _302  and  _303
REMARK  116  A    between atoms: _306  and  _308
REMARK  117  A    between atoms: _308  and  _309
REMARK  118  A    between atoms: _308  and  _311
REMARK  119  A    between atoms: _311  and  _312
REMARK  120  A    between atoms: _317  and  _319
REMARK  121  A    between atoms: _319  and  _320
REMARK  122  A    between atoms: _319  and  _322
REMARK  123  A    between atoms: _322  and  _323
REMARK  124  A    between atoms: _323  and  _324
REMARK  125  A    between atoms: _327  and  _329
REMARK  126  A    between atoms: _329  and  _330
REMARK  127  A    between atoms: _329  and  _332
REMARK  128  A    between atoms: _332  and  _333
REMARK  129  A    between atoms: _333  and  _334
REMARK  130  A    between atoms: _334  and  _335
REMARK  131  A    between atoms: _335  and  CA_419
REMARK  132  A    between atoms: _337  and  _339
REMARK  133  A    between atoms: _339  and  _340
REMARK  134  A    between atoms: _339  and  _342
REMARK  135  A    between atoms: _342  and  _343
REMARK  136  A    between atoms: _345  and  _347
REMARK  137  A    between atoms: _347  and  _348
REMARK  138  A    between atoms: _351  and  _353
REMARK  139  A    between atoms: _353  and  _354
REMARK  140  A    between atoms: _356  and  _358
REMARK  141  A    between atoms: _358  and  _359
REMARK  142  A    between atoms: _358  and  _361
REMARK  143  A    between atoms: _361  and  _362
REMARK  144  A    between atoms: _362  and  _363
REMARK  145  A    between atoms: _363  and  _365
REMARK  146  A    between atoms: _365  and  CA_419
REMARK  147  A    between atoms: _366  and  _368
REMARK  148  A    between atoms: _368  and  _369
REMARK  149  A    between atoms: _368  and  _371
REMARK  150  A    between atoms: _371  and  _372
REMARK  151  A    between atoms: _377  and  _378
REMARK  152  A    between atoms: _380  and  _382
REMARK  153  A    between atoms: _382  and  _383
REMARK  154  A    between atoms: _382  and  _385
REMARK  155  A    between atoms: _385  and  _386
REMARK  156  A    between atoms: _392  and  _394
REMARK  157  A    between atoms: _394  and  _395
REMARK  158  A    between atoms: _394  and  _397
REMARK  159  A    between atoms: _397  and  _398
REMARK  160  A    between atoms: _401  and  _403
REMARK  161  A    between atoms: _403  and  _404
REMARK  162  A    between atoms: _403  and  _406
REMARK  163  A    between atoms: _406  and  _407
REMARK  164  A    between atoms: _410  and  _412
REMARK  165  A    between atoms: _412  and  _413
REMARK  166  A    between atoms: _412  and  _415
REMARK  167  A    between atoms: _415  and  _416
REMARK  168  A    between atoms: _416  and  _417
REMARK                            x       y       z     vdW  Elec       q    Type
REMARK                         _______ _______ _______ _____ _____    ______ ____
ROOT
ATOM      1  O   HOH     1      16.522  45.668  72.760  0.00  0.00    +0.000 OA
ENDROOT
TORSDOF 0
REMARK  Name = ../refined-set-2016/2jkp/2jkp_pocket.pdb
REMARK  168 active torsions:
REMARK  status: ('A' for Active; 'I' for Inactive)
REMARK    1  A    between atoms: _1  and  _3
REMARK    2  A    between atoms: _3  and  _4
REMARK    3  A    between atoms: _3  and  _6
REMARK    4  A    between atoms: _6  and  _7
REMARK    5  A    between atoms: _7  and  _8
REMARK    6  A    between atoms: _11  and  _13
REMARK    7  A    between atoms: _13  and  _14
REMARK    8  A    between atoms: _13  and  _16
REMARK    9  A    between atoms: _16  and  _17
REMARK   10  A    between atoms: _19  and  _21
REMARK   11  A    between atoms: _21  and  _22
REMARK   12  A    between atoms: _21  and  _24
REMARK   13  A    between atoms: _24  and  _25
REMARK   14  A    between atoms: _30  and  _31
REMARK   15  A    between atoms: _33  and  _35
REMARK   16  A    between atoms: _35  and  _36
REMARK   17  A    between atoms: _35  and  _38
REMARK   18  A    between atoms: _41  and  _43
REMARK   19  A    between atoms: _43  and  _44
REMARK   20  A    between atoms: _43  and  _46
REMARK   21  A    between atoms: _46  and  _47
REMARK   22  A    between atoms: _57  and  _59
REMARK   23  A    between atoms: _59  and  _60
REMARK   24  A    between atoms: _59  and  _62
REMARK   25  A    between atoms: _62  and  _63
REMARK   26  A    between atoms: _73  and  _75
REMARK   27  A    between atoms: _75  and  _76
REMARK   28  A    between atoms: _75  and  _78
REMARK   29  A    between atoms: _78  and  _79
REMARK   30  A    between atoms: _79  and  _80
REMARK   31  A    between atoms: _82  and  _84
REMARK   32  A    between atoms: _84  and  _85
REMARK   33  A    between atoms: _84  and  _87
REMARK   34  A    between atoms: _87  and  _88
REMARK   35  A    between atoms: _91  and  _93
REMARK   36  A    between atoms: _93  and  _94
REMARK   37  A    between atoms: _93  and  _96
REMARK   38  A    between atoms: _96  and  _97
REMARK   39  A    between atoms: _107  and  _109
REMARK   40  A    between atoms: _109  and  _110
REMARK   41  A    between atoms: _109  and  _112
REMARK   42  A    between atoms: _112  and  _113
REMARK   43  A    between atoms: _116  and  _118
REMARK   44  A    between atoms: _118  and  _119
REMARK   45  A    between atoms: _118  and  _121
REMARK   46  A    between atoms: _121  and  _122
REMARK   47  A    between atoms: _122  and  _123
REMARK   48  A    between atoms: _126  and  _128
REMARK   49  A    between atoms: _128  and  _129
REMARK   50  A    between atoms: _131  and  _133
REMARK   51  A    between atoms: _133  and  _134
REMARK   52  A    between atoms: _133  and  _136
REMARK   53  A    between atoms: _136  and  _137
REMARK   54  A    between atoms: _147  and  _149
REMARK   55  A    between atoms: _149  and  _150
REMARK   56  A    between atoms: _149  and  _152
REMARK   57  A    between atoms: _152  and  _153
REMARK   58  A    between atoms: _163  and  _165
REMARK   59  A    between atoms: _165  and  _166
REMARK   60  A    between atoms: _165  and  _168
REMARK   61  A    between atoms: _168  and  _169
REMARK   62  A    between atoms: _175  and  _177
REMARK   63  A    between atoms: _177  and  _178
REMARK   64  A    between atoms: _177  and  _180
REMARK   65  A    between atoms: _180  and  _181
REMARK   66  A    between atoms: _187  and  _189
REMARK   67  A    between atoms: _189  and  _190
REMARK   68  A    between atoms: _189  and  _192
REMARK   69  A    between atoms: _192  and  _193
REMARK   70  A    between atoms: _198  and  _200
REMARK   71  A    between atoms: _200  and  _201
REMARK   72  A    between atoms: _200  and  _203
REMARK   73  A    between atoms: _203  and  _204
REMARK   74  A    between atoms: _209  and  _211
REMARK   75  A    between atoms: _211  and  _212
REMARK   76  A    between atoms: _211  and  _214
REMARK   77  A    between atoms: _214  and  _215
REMARK   78  A    between atoms: _215  and  _216
REMARK   79  A    between atoms: _219  and  _221
REMARK   80  A    between atoms: _221  and  _222
REMARK   81  A    between atoms: _221  and  _224
REMARK   82  A    between atoms: _224  and  _225
REMARK   83  A    between atoms: _228  and  _230
REMARK   84  A    between atoms: _230  and  _231
REMARK   85  A    between atoms: _230  and  _233
REMARK   86  A    between atoms: _233  and  _234
REMARK   87  A    between atoms: _236  and  _238
REMARK   88  A    between atoms: _238  and  _239
REMARK   89  A    between atoms: _238  and  _241
REMARK   90  A    between atoms: _241  and  _242
REMARK   91  A    between atoms: _242  and  _243
REMARK   92  A    between atoms: _243  and  _244
REMARK   93  A    between atoms: _244  and  _245
REMARK   94  A    between atoms: _249  and  _251
REMARK   95  A    between atoms: _251  and  _252
REMARK   96  A    between atoms: _251  and  _254
REMARK   97  A    between atoms: _254  and  _255
REMARK   98  A    between atoms: _257  and  _259
REMARK   99  A    between atoms: _259  and  _260
REMARK  100  A    between atoms: _262  and  _264
REMARK  101  A    between atoms: _264  and  _265
REMARK  102  A    between atoms: _264  and  _267
REMARK  103  A    between atoms: _267  and  _268
REMARK  104  A    between atoms: _273  and  _274
REMARK  105  A    between atoms: _276  and  _278
REMARK  106  A    between atoms: _278  and  _279
REMARK  107  A    between atoms: _278  and  _281
REMARK  108  A    between atoms: _284  and  _286
REMARK  109  A    between atoms: _286  and  _287
REMARK  110  A    between atoms: _289  and  _291
REMARK  111  A    between atoms: _291  and  _292
REMARK  112  A    between atoms: _291  and  _294
REMARK  113  A    between atoms: _294  and  _295
REMARK  114  A    between atoms: _300  and  _302
REMARK  115  A    between atoms: _302  and  _303
REMARK  116  A    between atoms: _306  and  _308
REMARK  117  A    between atoms: _308  and  _309
REMARK  118  A    between atoms: _308  and  _311
REMARK  119  A    between atoms: _311  and  _312
REMARK  120  A    between atoms: _317  and  _319
REMARK  121  A    between atoms: _319  and  _320
REMARK  122  A    between atoms: _319  and  _322
REMARK  123  A    between atoms: _322  and  _323
REMARK  124  A    between atoms: _323  and  _324
REMARK  125  A    between atoms: _327  and  _329
REMARK  126  A    between atoms: _329  and  _330
REMARK  127  A    between atoms: _329  and  _332
REMARK  128  A    between atoms: _332  and  _333
REMARK  129  A    between atoms: _333  and  _334
REMARK  130  A    between atoms: _334  and  _335
REMARK  131  A    between atoms: _335  and  CA_419
REMARK  132  A    between atoms: _337  and  _339
REMARK  133  A    between atoms: _339  and  _340
REMARK  134  A    between atoms: _339  and  _342
REMARK  135  A    between atoms: _342  and  _343
REMARK  136  A    between atoms: _345  and  _347
REMARK  137  A    between atoms: _347  and  _348
REMARK  138  A    between atoms: _351  and  _353
REMARK  139  A    between atoms: _353  and  _354
REMARK  140  A    between atoms: _356  and  _358
REMARK  141  A    between atoms: _358  and  _359
REMARK  142  A    between atoms: _358  and  _361
REMARK  143  A    between atoms: _361  and  _362
REMARK  144  A    between atoms: _362  and  _363
REMARK  145  A    between atoms: _363  and  _365
REMARK  146  A    between atoms: _365  and  CA_419
REMARK  147  A    between atoms: _366  and  _368
REMARK  148  A    between atoms: _368  and  _369
REMARK  149  A    between atoms: _368  and  _371
REMARK  150  A    between atoms: _371  and  _372
REMARK  151  A    between atoms: _377  and  _378
REMARK  152  A    between atoms: _380  and  _382
REMARK  153  A    between atoms: _382  and  _383
REMARK  154  A    between atoms: _382  and  _385
REMARK  155  A    between atoms: _385  and  _386
REMARK  156  A    between atoms: _392  and  _394
REMARK  157  A    between atoms: _394  and  _395
REMARK  158  A    between atoms: _394  and  _397
REMARK  159  A    between atoms: _397  and  _398
REMARK  160  A    between atoms: _401  and  _403
REMARK  161  A    between atoms: _403  and  _404
REMARK  162  A    between atoms: _403  and  _406
REMARK  163  A    between atoms: _406  and  _407
REMARK  164  A    between atoms: _410  and  _412
REMARK  165  A    between atoms: _412  and  _413
REMARK  166  A    between atoms: _412  and  _415
REMARK  167  A    between atoms: _415  and  _416
REMARK  168  A    between atoms: _416  and  _417
REMARK                            x       y       z     vdW  Elec       q    Type
REMARK                         _______ _______ _______ _____ _____    ______ ____
ROOT
ATOM      1  O   HOH     1      20.166  47.326  75.374  0.00  0.00    +0.000 OA
ENDROOT
TORSDOF 0
REMARK  Name = ../refined-set-2016/2jkp/2jkp_pocket.pdb
REMARK  168 active torsions:
REMARK  status: ('A' for Active; 'I' for Inactive)
REMARK    1  A    between atoms: _1  and  _3
REMARK    2  A    between atoms: _3  and  _4
REMARK    3  A    between atoms: _3  and  _6
REMARK    4  A    between atoms: _6  and  _7
REMARK    5  A    between atoms: _7  and  _8
REMARK    6  A    between atoms: _11  and  _13
REMARK    7  A    between atoms: _13  and  _14
REMARK    8  A    between atoms: _13  and  _16
REMARK    9  A    between atoms: _16  and  _17
REMARK   10  A    between atoms: _19  and  _21
REMARK   11  A    between atoms: _21  and  _22
REMARK   12  A    between atoms: _21  and  _24
REMARK   13  A    between atoms: _24  and  _25
REMARK   14  A    between atoms: _30  and  _31
REMARK   15  A    between atoms: _33  and  _35
REMARK   16  A    between atoms: _35  and  _36
REMARK   17  A    between atoms: _35  and  _38
REMARK   18  A    between atoms: _41  and  _43
REMARK   19  A    between atoms: _43  and  _44
REMARK   20  A    between atoms: _43  and  _46
REMARK   21  A    between atoms: _46  and  _47
REMARK   22  A    between atoms: _57  and  _59
REMARK   23  A    between atoms: _59  and  _60
REMARK   24  A    between atoms: _59  and  _62
REMARK   25  A    between atoms: _62  and  _63
REMARK   26  A    between atoms: _73  and  _75
REMARK   27  A    between atoms: _75  and  _76
REMARK   28  A    between atoms: _75  and  _78
REMARK   29  A    between atoms: _78  and  _79
REMARK   30  A    between atoms: _79  and  _80
REMARK   31  A    between atoms: _82  and  _84
REMARK   32  A    between atoms: _84  and  _85
REMARK   33  A    between atoms: _84  and  _87
REMARK   34  A    between atoms: _87  and  _88
REMARK   35  A    between atoms: _91  and  _93
REMARK   36  A    between atoms: _93  and  _94
REMARK   37  A    between atoms: _93  and  _96
REMARK   38  A    between atoms: _96  and  _97
REMARK   39  A    between atoms: _107  and  _109
REMARK   40  A    between atoms: _109  and  _110
REMARK   41  A    between atoms: _109  and  _112
REMARK   42  A    between atoms: _112  and  _113
REMARK   43  A    between atoms: _116  and  _118
REMARK   44  A    between atoms: _118  and  _119
REMARK   45  A    between atoms: _118  and  _121
REMARK   46  A    between atoms: _121  and  _122
REMARK   47  A    between atoms: _122  and  _123
REMARK   48  A    between atoms: _126  and  _128
REMARK   49  A    between atoms: _128  and  _129
REMARK   50  A    between atoms: _131  and  _133
REMARK   51  A    between atoms: _133  and  _134
REMARK   52  A    between atoms: _133  and  _136
REMARK   53  A    between atoms: _136  and  _137
REMARK   54  A    between atoms: _147  and  _149
REMARK   55  A    between atoms: _149  and  _150
REMARK   56  A    between atoms: _149  and  _152
REMARK   57  A    between atoms: _152  and  _153
REMARK   58  A    between atoms: _163  and  _165
REMARK   59  A    between atoms: _165  and  _166
REMARK   60  A    between atoms: _165  and  _168
REMARK   61  A    between atoms: _168  and  _169
REMARK   62  A    between atoms: _175  and  _177
REMARK   63  A    between atoms: _177  and  _178
REMARK   64  A    between atoms: _177  and  _180
REMARK   65  A    between atoms: _180  and  _181
REMARK   66  A    between atoms: _187  and  _189
REMARK   67  A    between atoms: _189  and  _190
REMARK   68  A    between atoms: _189  and  _192
REMARK   69  A    between atoms: _192  and  _193
REMARK   70  A    between atoms: _198  and  _200
REMARK   71  A    between atoms: _200  and  _201
REMARK   72  A    between atoms: _200  and  _203
REMARK   73  A    between atoms: _203  and  _204
REMARK   74  A    between atoms: _209  and  _211
REMARK   75  A    between atoms: _211  and  _212
REMARK   76  A    between atoms: _211  and  _214
REMARK   77  A    between atoms: _214  and  _215
REMARK   78  A    between atoms: _215  and  _216
REMARK   79  A    between atoms: _219  and  _221
REMARK   80  A    between atoms: _221  and  _222
REMARK   81  A    between atoms: _221  and  _224
REMARK   82  A    between atoms: _224  and  _225
REMARK   83  A    between atoms: _228  and  _230
REMARK   84  A    between atoms: _230  and  _231
REMARK   85  A    between atoms: _230  and  _233
REMARK   86  A    between atoms: _233  and  _234
REMARK   87  A    between atoms: _236  and  _238
REMARK   88  A    between atoms: _238  and  _239
REMARK   89  A    between atoms: _238  and  _241
REMARK   90  A    between atoms: _241  and  _242
REMARK   91  A    between atoms: _242  and  _243
REMARK   92  A    between atoms: _243  and  _244
REMARK   93  A    between atoms: _244  and  _245
REMARK   94  A    between atoms: _249  and  _251
REMARK   95  A    between atoms: _251  and  _252
REMARK   96  A    between atoms: _251  and  _254
REMARK   97  A    between atoms: _254  and  _255
REMARK   98  A    between atoms: _257  and  _259
REMARK   99  A    between atoms: _259  and  _260
REMARK  100  A    between atoms: _262  and  _264
REMARK  101  A    between atoms: _264  and  _265
REMARK  102  A    between atoms: _264  and  _267
REMARK  103  A    between atoms: _267  and  _268
REMARK  104  A    between atoms: _273  and  _274
REMARK  105  A    between atoms: _276  and  _278
REMARK  106  A    between atoms: _278  and  _279
REMARK  107  A    between atoms: _278  and  _281
REMARK  108  A    between atoms: _284  and  _286
REMARK  109  A    between atoms: _286  and  _287
REMARK  110  A    between atoms: _289  and  _291
REMARK  111  A    between atoms: _291  and  _292
REMARK  112  A    between atoms: _291  and  _294
REMARK  113  A    between atoms: _294  and  _295
REMARK  114  A    between atoms: _300  and  _302
REMARK  115  A    between atoms: _302  and  _303
REMARK  116  A    between atoms: _306  and  _308
REMARK  117  A    between atoms: _308  and  _309
REMARK  118  A    between atoms: _308  and  _311
REMARK  119  A    between atoms: _311  and  _312
REMARK  120  A    between atoms: _317  and  _319
REMARK  121  A    between atoms: _319  and  _320
REMARK  122  A    between atoms: _319  and  _322
REMARK  123  A    between atoms: _322  and  _323
REMARK  124  A    between atoms: _323  and  _324
REMARK  125  A    between atoms: _327  and  _329
REMARK  126  A    between atoms: _329  and  _330
REMARK  127  A    between atoms: _329  and  _332
REMARK  128  A    between atoms: _332  and  _333
REMARK  129  A    between atoms: _333  and  _334
REMARK  130  A    between atoms: _334  and  _335
REMARK  131  A    between atoms: _335  and  CA_419
REMARK  132  A    between atoms: _337  and  _339
REMARK  133  A    between atoms: _339  and  _340
REMARK  134  A    between atoms: _339  and  _342
REMARK  135  A    between atoms: _342  and  _343
REMARK  136  A    between atoms: _345  and  _347
REMARK  137  A    between atoms: _347  and  _348
REMARK  138  A    between atoms: _351  and  _353
REMARK  139  A    between atoms: _353  and  _354
REMARK  140  A    between atoms: _356  and  _358
REMARK  141  A    between atoms: _358  and  _359
REMARK  142  A    between atoms: _358  and  _361
REMARK  143  A    between atoms: _361  and  _362
REMARK  144  A    between atoms: _362  and  _363
REMARK  145  A    between atoms: _363  and  _365
REMARK  146  A    between atoms: _365  and  CA_419
REMARK  147  A    between atoms: _366  and  _368
REMARK  148  A    between atoms: _368  and  _369
REMARK  149  A    between atoms: _368  and  _371
REMARK  150  A    between atoms: _371  and  _372
REMARK  151  A    between atoms: _377  and  _378
REMARK  152  A    between atoms: _380  and  _382
REMARK  153  A    between atoms: _382  and  _383
REMARK  154  A    between atoms: _382  and  _385
REMARK  155  A    between atoms: _385  and  _386
REMARK  156  A    between atoms: _392  and  _394
REMARK  157  A    between atoms: _394  and  _395
REMARK  158  A    between atoms: _394  and  _397
REMARK  159  A    between atoms: _397  and  _398
REMARK  160  A    between atoms: _401  and  _403
REMARK  161  A    between atoms: _403  and  _404
REMARK  162  A    between atoms: _403  and  _406
REMARK  163  A    between atoms: _406  and  _407
REMARK  164  A    between atoms: _410  and  _412
REMARK  165  A    between atoms: _412  and  _413
REMARK  166  A    between atoms: _412  and  _415
REMARK  167  A    between atoms: _415  and  _416
REMARK  168  A    between atoms: _416  and  _417
REMARK                            x       y       z     vdW  Elec       q    Type
REMARK                         _______ _______ _______ _____ _____    ______ ____
ROOT
ATOM      1  O   HOH     1      22.072  46.890  70.387  0.00  0.00    +0.000 OA
ENDROOT
TORSDOF 0
REMARK  Name = ../refined-set-2016/2jkp/2jkp_pocket.pdb
REMARK  168 active torsions:
REMARK  status: ('A' for Active; 'I' for Inactive)
REMARK    1  A    between atoms: _1  and  _3
REMARK    2  A    between atoms: _3  and  _4
REMARK    3  A    between atoms: _3  and  _6
REMARK    4  A    between atoms: _6  and  _7
REMARK    5  A    between atoms: _7  and  _8
REMARK    6  A    between atoms: _11  and  _13
REMARK    7  A    between atoms: _13  and  _14
REMARK    8  A    between atoms: _13  and  _16
REMARK    9  A    between atoms: _16  and  _17
REMARK   10  A    between atoms: _19  and  _21
REMARK   11  A    between atoms: _21  and  _22
REMARK   12  A    between atoms: _21  and  _24
REMARK   13  A    between atoms: _24  and  _25
REMARK   14  A    between atoms: _30  and  _31
REMARK   15  A    between atoms: _33  and  _35
REMARK   16  A    between atoms: _35  and  _36
REMARK   17  A    between atoms: _35  and  _38
REMARK   18  A    between atoms: _41  and  _43
REMARK   19  A    between atoms: _43  and  _44
REMARK   20  A    between atoms: _43  and  _46
REMARK   21  A    between atoms: _46  and  _47
REMARK   22  A    between atoms: _57  and  _59
REMARK   23  A    between atoms: _59  and  _60
REMARK   24  A    between atoms: _59  and  _62
REMARK   25  A    between atoms: _62  and  _63
REMARK   26  A    between atoms: _73  and  _75
REMARK   27  A    between atoms: _75  and  _76
REMARK   28  A    between atoms: _75  and  _78
REMARK   29  A    between atoms: _78  and  _79
REMARK   30  A    between atoms: _79  and  _80
REMARK   31  A    between atoms: _82  and  _84
REMARK   32  A    between atoms: _84  and  _85
REMARK   33  A    between atoms: _84  and  _87
REMARK   34  A    between atoms: _87  and  _88
REMARK   35  A    between atoms: _91  and  _93
REMARK   36  A    between atoms: _93  and  _94
REMARK   37  A    between atoms: _93  and  _96
REMARK   38  A    between atoms: _96  and  _97
REMARK   39  A    between atoms: _107  and  _109
REMARK   40  A    between atoms: _109  and  _110
REMARK   41  A    between atoms: _109  and  _112
REMARK   42  A    between atoms: _112  and  _113
REMARK   43  A    between atoms: _116  and  _118
REMARK   44  A    between atoms: _118  and  _119
REMARK   45  A    between atoms: _118  and  _121
REMARK   46  A    between atoms: _121  and  _122
REMARK   47  A    between atoms: _122  and  _123
REMARK   48  A    between atoms: _126  and  _128
REMARK   49  A    between atoms: _128  and  _129
REMARK   50  A    between atoms: _131  and  _133
REMARK   51  A    between atoms: _133  and  _134
REMARK   52  A    between atoms: _133  and  _136
REMARK   53  A    between atoms: _136  and  _137
REMARK   54  A    between atoms: _147  and  _149
REMARK   55  A    between atoms: _149  and  _150
REMARK   56  A    between atoms: _149  and  _152
REMARK   57  A    between atoms: _152  and  _153
REMARK   58  A    between atoms: _163  and  _165
REMARK   59  A    between atoms: _165  and  _166
REMARK   60  A    between atoms: _165  and  _168
REMARK   61  A    between atoms: _168  and  _169
REMARK   62  A    between atoms: _175  and  _177
REMARK   63  A    between atoms: _177  and  _178
REMARK   64  A    between atoms: _177  and  _180
REMARK   65  A    between atoms: _180  and  _181
REMARK   66  A    between atoms: _187  and  _189
REMARK   67  A    between atoms: _189  and  _190
REMARK   68  A    between atoms: _189  and  _192
REMARK   69  A    between atoms: _192  and  _193
REMARK   70  A    between atoms: _198  and  _200
REMARK   71  A    between atoms: _200  and  _201
REMARK   72  A    between atoms: _200  and  _203
REMARK   73  A    between atoms: _203  and  _204
REMARK   74  A    between atoms: _209  and  _211
REMARK   75  A    between atoms: _211  and  _212
REMARK   76  A    between atoms: _211  and  _214
REMARK   77  A    between atoms: _214  and  _215
REMARK   78  A    between atoms: _215  and  _216
REMARK   79  A    between atoms: _219  and  _221
REMARK   80  A    between atoms: _221  and  _222
REMARK   81  A    between atoms: _221  and  _224
REMARK   82  A    between atoms: _224  and  _225
REMARK   83  A    between atoms: _228  and  _230
REMARK   84  A    between atoms: _230  and  _231
REMARK   85  A    between atoms: _230  and  _233
REMARK   86  A    between atoms: _233  and  _234
REMARK   87  A    between atoms: _236  and  _238
REMARK   88  A    between atoms: _238  and  _239
REMARK   89  A    between atoms: _238  and  _241
REMARK   90  A    between atoms: _241  and  _242
REMARK   91  A    between atoms: _242  and  _243
REMARK   92  A    between atoms: _243  and  _244
REMARK   93  A    between atoms: _244  and  _245
REMARK   94  A    between atoms: _249  and  _251
REMARK   95  A    between atoms: _251  and  _252
REMARK   96  A    between atoms: _251  and  _254
REMARK   97  A    between atoms: _254  and  _255
REMARK   98  A    between atoms: _257  and  _259
REMARK   99  A    between atoms: _259  and  _260
REMARK  100  A    between atoms: _262  and  _264
REMARK  101  A    between atoms: _264  and  _265
REMARK  102  A    between atoms: _264  and  _267
REMARK  103  A    between atoms: _267  and  _268
REMARK  104  A    between atoms: _273  and  _274
REMARK  105  A    between atoms: _276  and  _278
REMARK  106  A    between atoms: _278  and  _279
REMARK  107  A    between atoms: _278  and  _281
REMARK  108  A    between atoms: _284  and  _286
REMARK  109  A    between atoms: _286  and  _287
REMARK  110  A    between atoms: _289  and  _291
REMARK  111  A    between atoms: _291  and  _292
REMARK  112  A    between atoms: _291  and  _294
REMARK  113  A    between atoms: _294  and  _295
REMARK  114  A    between atoms: _300  and  _302
REMARK  115  A    between atoms: _302  and  _303
REMARK  116  A    between atoms: _306  and  _308
REMARK  117  A    between atoms: _308  and  _309
REMARK  118  A    between atoms: _308  and  _311
REMARK  119  A    between atoms: _311  and  _312
REMARK  120  A    between atoms: _317  and  _319
REMARK  121  A    between atoms: _319  and  _320
REMARK  122  A    between atoms: _319  and  _322
REMARK  123  A    between atoms: _322  and  _323
REMARK  124  A    between atoms: _323  and  _324
REMARK  125  A    between atoms: _327  and  _329
REMARK  126  A    between atoms: _329  and  _330
REMARK  127  A    between atoms: _329  and  _332
REMARK  128  A    between atoms: _332  and  _333
REMARK  129  A    between atoms: _333  and  _334
REMARK  130  A    between atoms: _334  and  _335
REMARK  131  A    between atoms: _335  and  CA_419
REMARK  132  A    between atoms: _337  and  _339
REMARK  133  A    between atoms: _339  and  _340
REMARK  134  A    between atoms: _339  and  _342
REMARK  135  A    between atoms: _342  and  _343
REMARK  136  A    between atoms: _345  and  _347
REMARK  137  A    between atoms: _347  and  _348
REMARK  138  A    between atoms: _351  and  _353
REMARK  139  A    between atoms: _353  and  _354
REMARK  140  A    between atoms: _356  and  _358
REMARK  141  A    between atoms: _358  and  _359
REMARK  142  A    between atoms: _358  and  _361
REMARK  143  A    between atoms: _361  and  _362
REMARK  144  A    between atoms: _362  and  _363
REMARK  145  A    between atoms: _363  and  _365
REMARK  146  A    between atoms: _365  and  CA_419
REMARK  147  A    between atoms: _366  and  _368
REMARK  148  A    between atoms: _368  and  _369
REMARK  149  A    between atoms: _368  and  _371
REMARK  150  A    between atoms: _371  and  _372
REMARK  151  A    between atoms: _377  and  _378
REMARK  152  A    between atoms: _380  and  _382
REMARK  153  A    between atoms: _382  and  _383
REMARK  154  A    between atoms: _382  and  _385
REMARK  155  A    between atoms: _385  and  _386
REMARK  156  A    between atoms: _392  and  _394
REMARK  157  A    between atoms: _394  and  _395
REMARK  158  A    between atoms: _394  and  _397
REMARK  159  A    between atoms: _397  and  _398
REMARK  160  A    between atoms: _401  and  _403
REMARK  161  A    between atoms: _403  and  _404
REMARK  162  A    between atoms: _403  and  _406
REMARK  163  A    between atoms: _406  and  _407
REMARK  164  A    between atoms: _410  and  _412
REMARK  165  A    between atoms: _412  and  _413
REMARK  166  A    between atoms: _412  and  _415
REMARK  167  A    between atoms: _415  and  _416
REMARK  168  A    between atoms: _416  and  _417
REMARK                            x       y       z     vdW  Elec       q    Type
REMARK                         _______ _______ _______ _____ _____    ______ ____
ROOT
ATOM      1  O   HOH     1      25.515  45.698  70.430  0.00  0.00    +0.000 OA
ENDROOT
TORSDOF 0
REMARK  Name = ../refined-set-2016/2jkp/2jkp_pocket.pdb
REMARK  168 active torsions:
REMARK  status: ('A' for Active; 'I' for Inactive)
REMARK    1  A    between atoms: _1  and  _3
REMARK    2  A    between atoms: _3  and  _4
REMARK    3  A    between atoms: _3  and  _6
REMARK    4  A    between atoms: _6  and  _7
REMARK    5  A    between atoms: _7  and  _8
REMARK    6  A    between atoms: _11  and  _13
REMARK    7  A    between atoms: _13  and  _14
REMARK    8  A    between atoms: _13  and  _16
REMARK    9  A    between atoms: _16  and  _17
REMARK   10  A    between atoms: _19  and  _21
REMARK   11  A    between atoms: _21  and  _22
REMARK   12  A    between atoms: _21  and  _24
REMARK   13  A    between atoms: _24  and  _25
REMARK   14  A    between atoms: _30  and  _31
REMARK   15  A    between atoms: _33  and  _35
REMARK   16  A    between atoms: _35  and  _36
REMARK   17  A    between atoms: _35  and  _38
REMARK   18  A    between atoms: _41  and  _43
REMARK   19  A    between atoms: _43  and  _44
REMARK   20  A    between atoms: _43  and  _46
REMARK   21  A    between atoms: _46  and  _47
REMARK   22  A    between atoms: _57  and  _59
REMARK   23  A    between atoms: _59  and  _60
REMARK   24  A    between atoms: _59  and  _62
REMARK   25  A    between atoms: _62  and  _63
REMARK   26  A    between atoms: _73  and  _75
REMARK   27  A    between atoms: _75  and  _76
REMARK   28  A    between atoms: _75  and  _78
REMARK   29  A    between atoms: _78  and  _79
REMARK   30  A    between atoms: _79  and  _80
REMARK   31  A    between atoms: _82  and  _84
REMARK   32  A    between atoms: _84  and  _85
REMARK   33  A    between atoms: _84  and  _87
REMARK   34  A    between atoms: _87  and  _88
REMARK   35  A    between atoms: _91  and  _93
REMARK   36  A    between atoms: _93  and  _94
REMARK   37  A    between atoms: _93  and  _96
REMARK   38  A    between atoms: _96  and  _97
REMARK   39  A    between atoms: _107  and  _109
REMARK   40  A    between atoms: _109  and  _110
REMARK   41  A    between atoms: _109  and  _112
REMARK   42  A    between atoms: _112  and  _113
REMARK   43  A    between atoms: _116  and  _118
REMARK   44  A    between atoms: _118  and  _119
REMARK   45  A    between atoms: _118  and  _121
REMARK   46  A    between atoms: _121  and  _122
REMARK   47  A    between atoms: _122  and  _123
REMARK   48  A    between atoms: _126  and  _128
REMARK   49  A    between atoms: _128  and  _129
REMARK   50  A    between atoms: _131  and  _133
REMARK   51  A    between atoms: _133  and  _134
REMARK   52  A    between atoms: _133  and  _136
REMARK   53  A    between atoms: _136  and  _137
REMARK   54  A    between atoms: _147  and  _149
REMARK   55  A    between atoms: _149  and  _150
REMARK   56  A    between atoms: _149  and  _152
REMARK   57  A    between atoms: _152  and  _153
REMARK   58  A    between atoms: _163  and  _165
REMARK   59  A    between atoms: _165  and  _166
REMARK   60  A    between atoms: _165  and  _168
REMARK   61  A    between atoms: _168  and  _169
REMARK   62  A    between atoms: _175  and  _177
REMARK   63  A    between atoms: _177  and  _178
REMARK   64  A    between atoms: _177  and  _180
REMARK   65  A    between atoms: _180  and  _181
REMARK   66  A    between atoms: _187  and  _189
REMARK   67  A    between atoms: _189  and  _190
REMARK   68  A    between atoms: _189  and  _192
REMARK   69  A    between atoms: _192  and  _193
REMARK   70  A    between atoms: _198  and  _200
REMARK   71  A    between atoms: _200  and  _201
REMARK   72  A    between atoms: _200  and  _203
REMARK   73  A    between atoms: _203  and  _204
REMARK   74  A    between atoms: _209  and  _211
REMARK   75  A    between atoms: _211  and  _212
REMARK   76  A    between atoms: _211  and  _214
REMARK   77  A    between atoms: _214  and  _215
REMARK   78  A    between atoms: _215  and  _216
REMARK   79  A    between atoms: _219  and  _221
REMARK   80  A    between atoms: _221  and  _222
REMARK   81  A    between atoms: _221  and  _224
REMARK   82  A    between atoms: _224  and  _225
REMARK   83  A    between atoms: _228  and  _230
REMARK   84  A    between atoms: _230  and  _231
REMARK   85  A    between atoms: _230  and  _233
REMARK   86  A    between atoms: _233  and  _234
REMARK   87  A    between atoms: _236  and  _238
REMARK   88  A    between atoms: _238  and  _239
REMARK   89  A    between atoms: _238  and  _241
REMARK   90  A    between atoms: _241  and  _242
REMARK   91  A    between atoms: _242  and  _243
REMARK   92  A    between atoms: _243  and  _244
REMARK   93  A    between atoms: _244  and  _245
REMARK   94  A    between atoms: _249  and  _251
REMARK   95  A    between atoms: _251  and  _252
REMARK   96  A    between atoms: _251  and  _254
REMARK   97  A    between atoms: _254  and  _255
REMARK   98  A    between atoms: _257  and  _259
REMARK   99  A    between atoms: _259  and  _260
REMARK  100  A    between atoms: _262  and  _264
REMARK  101  A    between atoms: _264  and  _265
REMARK  102  A    between atoms: _264  and  _267
REMARK  103  A    between atoms: _267  and  _268
REMARK  104  A    between atoms: _273  and  _274
REMARK  105  A    between atoms: _276  and  _278
REMARK  106  A    between atoms: _278  and  _279
REMARK  107  A    between atoms: _278  and  _281
REMARK  108  A    between atoms: _284  and  _286
REMARK  109  A    between atoms: _286  and  _287
REMARK  110  A    between atoms: _289  and  _291
REMARK  111  A    between atoms: _291  and  _292
REMARK  112  A    between atoms: _291  and  _294
REMARK  113  A    between atoms: _294  and  _295
REMARK  114  A    between atoms: _300  and  _302
REMARK  115  A    between atoms: _302  and  _303
REMARK  116  A    between atoms: _306  and  _308
REMARK  117  A    between atoms: _308  and  _309
REMARK  118  A    between atoms: _308  and  _311
REMARK  119  A    between atoms: _311  and  _312
REMARK  120  A    between atoms: _317  and  _319
REMARK  121  A    between atoms: _319  and  _320
REMARK  122  A    between atoms: _319  and  _322
REMARK  123  A    between atoms: _322  and  _323
REMARK  124  A    between atoms: _323  and  _324
REMARK  125  A    between atoms: _327  and  _329
REMARK  126  A    between atoms: _329  and  _330
REMARK  127  A    between atoms: _329  and  _332
REMARK  128  A    between atoms: _332  and  _333
REMARK  129  A    between atoms: _333  and  _334
REMARK  130  A    between atoms: _334  and  _335
REMARK  131  A    between atoms: _335  and  CA_419
REMARK  132  A    between atoms: _337  and  _339
REMARK  133  A    between atoms: _339  and  _340
REMARK  134  A    between atoms: _339  and  _342
REMARK  135  A    between atoms: _342  and  _343
REMARK  136  A    between atoms: _345  and  _347
REMARK  137  A    between atoms: _347  and  _348
REMARK  138  A    between atoms: _351  and  _353
REMARK  139  A    between atoms: _353  and  _354
REMARK  140  A    between atoms: _356  and  _358
REMARK  141  A    between atoms: _358  and  _359
REMARK  142  A    between atoms: _358  and  _361
REMARK  143  A    between atoms: _361  and  _362
REMARK  144  A    between atoms: _362  and  _363
REMARK  145  A    between atoms: _363  and  _365
REMARK  146  A    between atoms: _365  and  CA_419
REMARK  147  A    between atoms: _366  and  _368
REMARK  148  A    between atoms: _368  and  _369
REMARK  149  A    between atoms: _368  and  _371
REMARK  150  A    between atoms: _371  and  _372
REMARK  151  A    between atoms: _377  and  _378
REMARK  152  A    between atoms: _380  and  _382
REMARK  153  A    between atoms: _382  and  _383
REMARK  154  A    between atoms: _382  and  _385
REMARK  155  A    between atoms: _385  and  _386
REMARK  156  A    between atoms: _392  and  _394
REMARK  157  A    between atoms: _394  and  _395
REMARK  158  A    between atoms: _394  and  _397
REMARK  159  A    between atoms: _397  and  _398
REMARK  160  A    between atoms: _401  and  _403
REMARK  161  A    between atoms: _403  and  _404
REMARK  162  A    between atoms: _403  and  _406
REMARK  163  A    between atoms: _406  and  _407
REMARK  164  A    between atoms: _410  and  _412
REMARK  165  A    between atoms: _412  and  _413
REMARK  166  A    between atoms: _412  and  _415
REMARK  167  A    between atoms: _415  and  _416
REMARK  168  A    between atoms: _416  and  _417
REMARK                            x       y       z     vdW  Elec       q    Type
REMARK                         _______ _______ _______ _____ _____    ______ ____
ROOT
ATOM      1  O   HOH     1      21.763  37.824  75.347  0.00  0.00    +0.000 OA
ENDROOT
TORSDOF 0
REMARK  Name = ../refined-set-2016/2jkp/2jkp_pocket.pdb
REMARK  168 active torsions:
REMARK  status: ('A' for Active; 'I' for Inactive)
REMARK    1  A    between atoms: _1  and  _3
REMARK    2  A    between atoms: _3  and  _4
REMARK    3  A    between atoms: _3  and  _6
REMARK    4  A    between atoms: _6  and  _7
REMARK    5  A    between atoms: _7  and  _8
REMARK    6  A    between atoms: _11  and  _13
REMARK    7  A    between atoms: _13  and  _14
REMARK    8  A    between atoms: _13  and  _16
REMARK    9  A    between atoms: _16  and  _17
REMARK   10  A    between atoms: _19  and  _21
REMARK   11  A    between atoms: _21  and  _22
REMARK   12  A    between atoms: _21  and  _24
REMARK   13  A    between atoms: _24  and  _25
REMARK   14  A    between atoms: _30  and  _31
REMARK   15  A    between atoms: _33  and  _35
REMARK   16  A    between atoms: _35  and  _36
REMARK   17  A    between atoms: _35  and  _38
REMARK   18  A    between atoms: _41  and  _43
REMARK   19  A    between atoms: _43  and  _44
REMARK   20  A    between atoms: _43  and  _46
REMARK   21  A    between atoms: _46  and  _47
REMARK   22  A    between atoms: _57  and  _59
REMARK   23  A    between atoms: _59  and  _60
REMARK   24  A    between atoms: _59  and  _62
REMARK   25  A    between atoms: _62  and  _63
REMARK   26  A    between atoms: _73  and  _75
REMARK   27  A    between atoms: _75  and  _76
REMARK   28  A    between atoms: _75  and  _78
REMARK   29  A    between atoms: _78  and  _79
REMARK   30  A    between atoms: _79  and  _80
REMARK   31  A    between atoms: _82  and  _84
REMARK   32  A    between atoms: _84  and  _85
REMARK   33  A    between atoms: _84  and  _87
REMARK   34  A    between atoms: _87  and  _88
REMARK   35  A    between atoms: _91  and  _93
REMARK   36  A    between atoms: _93  and  _94
REMARK   37  A    between atoms: _93  and  _96
REMARK   38  A    between atoms: _96  and  _97
REMARK   39  A    between atoms: _107  and  _109
REMARK   40  A    between atoms: _109  and  _110
REMARK   41  A    between atoms: _109  and  _112
REMARK   42  A    between atoms: _112  and  _113
REMARK   43  A    between atoms: _116  and  _118
REMARK   44  A    between atoms: _118  and  _119
REMARK   45  A    between atoms: _118  and  _121
REMARK   46  A    between atoms: _121  and  _122
REMARK   47  A    between atoms: _122  and  _123
REMARK   48  A    between atoms: _126  and  _128
REMARK   49  A    between atoms: _128  and  _129
REMARK   50  A    between atoms: _131  and  _133
REMARK   51  A    between atoms: _133  and  _134
REMARK   52  A    between atoms: _133  and  _136
REMARK   53  A    between atoms: _136  and  _137
REMARK   54  A    between atoms: _147  and  _149
REMARK   55  A    between atoms: _149  and  _150
REMARK   56  A    between atoms: _149  and  _152
REMARK   57  A    between atoms: _152  and  _153
REMARK   58  A    between atoms: _163  and  _165
REMARK   59  A    between atoms: _165  and  _166
REMARK   60  A    between atoms: _165  and  _168
REMARK   61  A    between atoms: _168  and  _169
REMARK   62  A    between atoms: _175  and  _177
REMARK   63  A    between atoms: _177  and  _178
REMARK   64  A    between atoms: _177  and  _180
REMARK   65  A    between atoms: _180  and  _181
REMARK   66  A    between atoms: _187  and  _189
REMARK   67  A    between atoms: _189  and  _190
REMARK   68  A    between atoms: _189  and  _192
REMARK   69  A    between atoms: _192  and  _193
REMARK   70  A    between atoms: _198  and  _200
REMARK   71  A    between atoms: _200  and  _201
REMARK   72  A    between atoms: _200  and  _203
REMARK   73  A    between atoms: _203  and  _204
REMARK   74  A    between atoms: _209  and  _211
REMARK   75  A    between atoms: _211  and  _212
REMARK   76  A    between atoms: _211  and  _214
REMARK   77  A    between atoms: _214  and  _215
REMARK   78  A    between atoms: _215  and  _216
REMARK   79  A    between atoms: _219  and  _221
REMARK   80  A    between atoms: _221  and  _222
REMARK   81  A    between atoms: _221  and  _224
REMARK   82  A    between atoms: _224  and  _225
REMARK   83  A    between atoms: _228  and  _230
REMARK   84  A    between atoms: _230  and  _231
REMARK   85  A    between atoms: _230  and  _233
REMARK   86  A    between atoms: _233  and  _234
REMARK   87  A    between atoms: _236  and  _238
REMARK   88  A    between atoms: _238  and  _239
REMARK   89  A    between atoms: _238  and  _241
REMARK   90  A    between atoms: _241  and  _242
REMARK   91  A    between atoms: _242  and  _243
REMARK   92  A    between atoms: _243  and  _244
REMARK   93  A    between atoms: _244  and  _245
REMARK   94  A    between atoms: _249  and  _251
REMARK   95  A    between atoms: _251  and  _252
REMARK   96  A    between atoms: _251  and  _254
REMARK   97  A    between atoms: _254  and  _255
REMARK   98  A    between atoms: _257  and  _259
REMARK   99  A    between atoms: _259  and  _260
REMARK  100  A    between atoms: _262  and  _264
REMARK  101  A    between atoms: _264  and  _265
REMARK  102  A    between atoms: _264  and  _267
REMARK  103  A    between atoms: _267  and  _268
REMARK  104  A    between atoms: _273  and  _274
REMARK  105  A    between atoms: _276  and  _278
REMARK  106  A    between atoms: _278  and  _279
REMARK  107  A    between atoms: _278  and  _281
REMARK  108  A    between atoms: _284  and  _286
REMARK  109  A    between atoms: _286  and  _287
REMARK  110  A    between atoms: _289  and  _291
REMARK  111  A    between atoms: _291  and  _292
REMARK  112  A    between atoms: _291  and  _294
REMARK  113  A    between atoms: _294  and  _295
REMARK  114  A    between atoms: _300  and  _302
REMARK  115  A    between atoms: _302  and  _303
REMARK  116  A    between atoms: _306  and  _308
REMARK  117  A    between atoms: _308  and  _309
REMARK  118  A    between atoms: _308  and  _311
REMARK  119  A    between atoms: _311  and  _312
REMARK  120  A    between atoms: _317  and  _319
REMARK  121  A    between atoms: _319  and  _320
REMARK  122  A    between atoms: _319  and  _322
REMARK  123  A    between atoms: _322  and  _323
REMARK  124  A    between atoms: _323  and  _324
REMARK  125  A    between atoms: _327  and  _329
REMARK  126  A    between atoms: _329  and  _330
REMARK  127  A    between atoms: _329  and  _332
REMARK  128  A    between atoms: _332  and  _333
REMARK  129  A    between atoms: _333  and  _334
REMARK  130  A    between atoms: _334  and  _335
REMARK  131  A    between atoms: _335  and  CA_419
REMARK  132  A    between atoms: _337  and  _339
REMARK  133  A    between atoms: _339  and  _340
REMARK  134  A    between atoms: _339  and  _342
REMARK  135  A    between atoms: _342  and  _343
REMARK  136  A    between atoms: _345  and  _347
REMARK  137  A    between atoms: _347  and  _348
REMARK  138  A    between atoms: _351  and  _353
REMARK  139  A    between atoms: _353  and  _354
REMARK  140  A    between atoms: _356  and  _358
REMARK  141  A    between atoms: _358  and  _359
REMARK  142  A    between atoms: _358  and  _361
REMARK  143  A    between atoms: _361  and  _362
REMARK  144  A    between atoms: _362  and  _363
REMARK  145  A    between atoms: _363  and  _365
REMARK  146  A    between atoms: _365  and  CA_419
REMARK  147  A    between atoms: _366  and  _368
REMARK  148  A    between atoms: _368  and  _369
REMARK  149  A    between atoms: _368  and  _371
REMARK  150  A    between atoms: _371  and  _372
REMARK  151  A    between atoms: _377  and  _378
REMARK  152  A    between atoms: _380  and  _382
REMARK  153  A    between atoms: _382  and  _383
REMARK  154  A    between atoms: _382  and  _385
REMARK  155  A    between atoms: _385  and  _386
REMARK  156  A    between atoms: _392  and  _394
REMARK  157  A    between atoms: _394  and  _395
REMARK  158  A    between atoms: _394  and  _397
REMARK  159  A    between atoms: _397  and  _398
REMARK  160  A    between atoms: _401  and  _403
REMARK  161  A    between atoms: _403  and  _404
REMARK  162  A    between atoms: _403  and  _406
REMARK  163  A    between atoms: _406  and  _407
REMARK  164  A    between atoms: _410  and  _412
REMARK  165  A    between atoms: _412  and  _413
REMARK  166  A    between atoms: _412  and  _415
REMARK  167  A    between atoms: _415  and  _416
REMARK  168  A    between atoms: _416  and  _417
REMARK                            x       y       z     vdW  Elec       q    Type
REMARK                         _______ _______ _______ _____ _____    ______ ____
ROOT
ATOM      1  O   HOH     1      20.077  43.186  77.852  0.00  0.00    +0.000 OA
ENDROOT
TORSDOF 0
REMARK  Name = ../refined-set-2016/2jkp/2jkp_pocket.pdb
REMARK  168 active torsions:
REMARK  status: ('A' for Active; 'I' for Inactive)
REMARK    1  A    between atoms: _1  and  _3
REMARK    2  A    between atoms: _3  and  _4
REMARK    3  A    between atoms: _3  and  _6
REMARK    4  A    between atoms: _6  and  _7
REMARK    5  A    between atoms: _7  and  _8
REMARK    6  A    between atoms: _11  and  _13
REMARK    7  A    between atoms: _13  and  _14
REMARK    8  A    between atoms: _13  and  _16
REMARK    9  A    between atoms: _16  and  _17
REMARK   10  A    between atoms: _19  and  _21
REMARK   11  A    between atoms: _21  and  _22
REMARK   12  A    between atoms: _21  and  _24
REMARK   13  A    between atoms: _24  and  _25
REMARK   14  A    between atoms: _30  and  _31
REMARK   15  A    between atoms: _33  and  _35
REMARK   16  A    between atoms: _35  and  _36
REMARK   17  A    between atoms: _35  and  _38
REMARK   18  A    between atoms: _41  and  _43
REMARK   19  A    between atoms: _43  and  _44
REMARK   20  A    between atoms: _43  and  _46
REMARK   21  A    between atoms: _46  and  _47
REMARK   22  A    between atoms: _57  and  _59
REMARK   23  A    between atoms: _59  and  _60
REMARK   24  A    between atoms: _59  and  _62
REMARK   25  A    between atoms: _62  and  _63
REMARK   26  A    between atoms: _73  and  _75
REMARK   27  A    between atoms: _75  and  _76
REMARK   28  A    between atoms: _75  and  _78
REMARK   29  A    between atoms: _78  and  _79
REMARK   30  A    between atoms: _79  and  _80
REMARK   31  A    between atoms: _82  and  _84
REMARK   32  A    between atoms: _84  and  _85
REMARK   33  A    between atoms: _84  and  _87
REMARK   34  A    between atoms: _87  and  _88
REMARK   35  A    between atoms: _91  and  _93
REMARK   36  A    between atoms: _93  and  _94
REMARK   37  A    between atoms: _93  and  _96
REMARK   38  A    between atoms: _96  and  _97
REMARK   39  A    between atoms: _107  and  _109
REMARK   40  A    between atoms: _109  and  _110
REMARK   41  A    between atoms: _109  and  _112
REMARK   42  A    between atoms: _112  and  _113
REMARK   43  A    between atoms: _116  and  _118
REMARK   44  A    between atoms: _118  and  _119
REMARK   45  A    between atoms: _118  and  _121
REMARK   46  A    between atoms: _121  and  _122
REMARK   47  A    between atoms: _122  and  _123
REMARK   48  A    between atoms: _126  and  _128
REMARK   49  A    between atoms: _128  and  _129
REMARK   50  A    between atoms: _131  and  _133
REMARK   51  A    between atoms: _133  and  _134
REMARK   52  A    between atoms: _133  and  _136
REMARK   53  A    between atoms: _136  and  _137
REMARK   54  A    between atoms: _147  and  _149
REMARK   55  A    between atoms: _149  and  _150
REMARK   56  A    between atoms: _149  and  _152
REMARK   57  A    between atoms: _152  and  _153
REMARK   58  A    between atoms: _163  and  _165
REMARK   59  A    between atoms: _165  and  _166
REMARK   60  A    between atoms: _165  and  _168
REMARK   61  A    between atoms: _168  and  _169
REMARK   62  A    between atoms: _175  and  _177
REMARK   63  A    between atoms: _177  and  _178
REMARK   64  A    between atoms: _177  and  _180
REMARK   65  A    between atoms: _180  and  _181
REMARK   66  A    between atoms: _187  and  _189
REMARK   67  A    between atoms: _189  and  _190
REMARK   68  A    between atoms: _189  and  _192
REMARK   69  A    between atoms: _192  and  _193
REMARK   70  A    between atoms: _198  and  _200
REMARK   71  A    between atoms: _200  and  _201
REMARK   72  A    between atoms: _200  and  _203
REMARK   73  A    between atoms: _203  and  _204
REMARK   74  A    between atoms: _209  and  _211
REMARK   75  A    between atoms: _211  and  _212
REMARK   76  A    between atoms: _211  and  _214
REMARK   77  A    between atoms: _214  and  _215
REMARK   78  A    between atoms: _215  and  _216
REMARK   79  A    between atoms: _219  and  _221
REMARK   80  A    between atoms: _221  and  _222
REMARK   81  A    between atoms: _221  and  _224
REMARK   82  A    between atoms: _224  and  _225
REMARK   83  A    between atoms: _228  and  _230
REMARK   84  A    between atoms: _230  and  _231
REMARK   85  A    between atoms: _230  and  _233
REMARK   86  A    between atoms: _233  and  _234
REMARK   87  A    between atoms: _236  and  _238
REMARK   88  A    between atoms: _238  and  _239
REMARK   89  A    between atoms: _238  and  _241
REMARK   90  A    between atoms: _241  and  _242
REMARK   91  A    between atoms: _242  and  _243
REMARK   92  A    between atoms: _243  and  _244
REMARK   93  A    between atoms: _244  and  _245
REMARK   94  A    between atoms: _249  and  _251
REMARK   95  A    between atoms: _251  and  _252
REMARK   96  A    between atoms: _251  and  _254
REMARK   97  A    between atoms: _254  and  _255
REMARK   98  A    between atoms: _257  and  _259
REMARK   99  A    between atoms: _259  and  _260
REMARK  100  A    between atoms: _262  and  _264
REMARK  101  A    between atoms: _264  and  _265
REMARK  102  A    between atoms: _264  and  _267
REMARK  103  A    between atoms: _267  and  _268
REMARK  104  A    between atoms: _273  and  _274
REMARK  105  A    between atoms: _276  and  _278
REMARK  106  A    between atoms: _278  and  _279
REMARK  107  A    between atoms: _278  and  _281
REMARK  108  A    between atoms: _284  and  _286
REMARK  109  A    between atoms: _286  and  _287
REMARK  110  A    between atoms: _289  and  _291
REMARK  111  A    between atoms: _291  and  _292
REMARK  112  A    between atoms: _291  and  _294
REMARK  113  A    between atoms: _294  and  _295
REMARK  114  A    between atoms: _300  and  _302
REMARK  115  A    between atoms: _302  and  _303
REMARK  116  A    between atoms: _306  and  _308
REMARK  117  A    between atoms: _308  and  _309
REMARK  118  A    between atoms: _308  and  _311
REMARK  119  A    between atoms: _311  and  _312
REMARK  120  A    between atoms: _317  and  _319
REMARK  121  A    between atoms: _319  and  _320
REMARK  122  A    between atoms: _319  and  _322
REMARK  123  A    between atoms: _322  and  _323
REMARK  124  A    between atoms: _323  and  _324
REMARK  125  A    between atoms: _327  and  _329
REMARK  126  A    between atoms: _329  and  _330
REMARK  127  A    between atoms: _329  and  _332
REMARK  128  A    between atoms: _332  and  _333
REMARK  129  A    between atoms: _333  and  _334
REMARK  130  A    between atoms: _334  and  _335
REMARK  131  A    between atoms: _335  and  CA_419
REMARK  132  A    between atoms: _337  and  _339
REMARK  133  A    between atoms: _339  and  _340
REMARK  134  A    between atoms: _339  and  _342
REMARK  135  A    between atoms: _342  and  _343
REMARK  136  A    between atoms: _345  and  _347
REMARK  137  A    between atoms: _347  and  _348
REMARK  138  A    between atoms: _351  and  _353
REMARK  139  A    between atoms: _353  and  _354
REMARK  140  A    between atoms: _356  and  _358
REMARK  141  A    between atoms: _358  and  _359
REMARK  142  A    between atoms: _358  and  _361
REMARK  143  A    between atoms: _361  and  _362
REMARK  144  A    between atoms: _362  and  _363
REMARK  145  A    between atoms: _363  and  _365
REMARK  146  A    between atoms: _365  and  CA_419
REMARK  147  A    between atoms: _366  and  _368
REMARK  148  A    between atoms: _368  and  _369
REMARK  149  A    between atoms: _368  and  _371
REMARK  150  A    between atoms: _371  and  _372
REMARK  151  A    between atoms: _377  and  _378
REMARK  152  A    between atoms: _380  and  _382
REMARK  153  A    between atoms: _382  and  _383
REMARK  154  A    between atoms: _382  and  _385
REMARK  155  A    between atoms: _385  and  _386
REMARK  156  A    between atoms: _392  and  _394
REMARK  157  A    between atoms: _394  and  _395
REMARK  158  A    between atoms: _394  and  _397
REMARK  159  A    between atoms: _397  and  _398
REMARK  160  A    between atoms: _401  and  _403
REMARK  161  A    between atoms: _403  and  _404
REMARK  162  A    between atoms: _403  and  _406
REMARK  163  A    between atoms: _406  and  _407
REMARK  164  A    between atoms: _410  and  _412
REMARK  165  A    between atoms: _412  and  _413
REMARK  166  A    between atoms: _412  and  _415
REMARK  167  A    between atoms: _415  and  _416
REMARK  168  A    between atoms: _416  and  _417
REMARK                            x       y       z     vdW  Elec       q    Type
REMARK                         _______ _______ _______ _____ _____    ______ ____
ROOT
ATOM      1  O   HOH     1      22.692  42.938  77.440  0.00  0.00    +0.000 OA
ENDROOT
TORSDOF 0
