REMARK  Name = ../refined-set-2016/3p9l/3p9l_pocket.pdb
REMARK  333 active torsions:
REMARK  status: ('A' for Active; 'I' for Inactive)
REMARK    1  A    between atoms: _1  and  _3
REMARK    2  A    between atoms: _3  and  _4
REMARK    3  A    between atoms: _3  and  _6
REMARK    4  A    between atoms: _6  and  _7
REMARK    5  A    between atoms: _10  and  _12
REMARK    6  A    between atoms: _12  and  _13
REMARK    7  A    between atoms: _12  and  _15
REMARK    8  A    between atoms: _15  and  _16
REMARK    9  A    between atoms: _16  and  _17
REMARK   10  A    between atoms: _17  and  _18
REMARK   11  A    between atoms: _27  and  _29
REMARK   12  A    between atoms: _29  and  _30
REMARK   13  A    between atoms: _29  and  _32
REMARK   14  A    between atoms: _32  and  _33
REMARK   15  A    between atoms: _38  and  _39
REMARK   16  A    between atoms: _41  and  _43
REMARK   17  A    between atoms: _43  and  _44
REMARK   18  A    between atoms: _43  and  _46
REMARK   19  A    between atoms: _46  and  _47
REMARK   20  A    between atoms: _53  and  _55
REMARK   21  A    between atoms: _55  and  _56
REMARK   22  A    between atoms: _55  and  _58
REMARK   23  A    between atoms: _61  and  _63
REMARK   24  A    between atoms: _63  and  _64
REMARK   25  A    between atoms: _63  and  _66
REMARK   26  A    between atoms: _66  and  _67
REMARK   27  A    between atoms: _70  and  _72
REMARK   28  A    between atoms: _72  and  _73
REMARK   29  A    between atoms: _72  and  _75
REMARK   30  A    between atoms: _75  and  _76
REMARK   31  A    between atoms: _81  and  _82
REMARK   32  A    between atoms: _84  and  _86
REMARK   33  A    between atoms: _86  and  _87
REMARK   34  A    between atoms: _86  and  _89
REMARK   35  A    between atoms: _89  and  _90
REMARK   36  A    between atoms: _90  and  _91
REMARK   37  A    between atoms: _93  and  _95
REMARK   38  A    between atoms: _95  and  _96
REMARK   39  A    between atoms: _95  and  _98
REMARK   40  A    between atoms: _98  and  _99
REMARK   41  A    between atoms: _99  and  _100
REMARK   42  A    between atoms: _103  and  _105
REMARK   43  A    between atoms: _105  and  _106
REMARK   44  A    between atoms: _105  and  _108
REMARK   45  A    between atoms: _111  and  _113
REMARK   46  A    between atoms: _113  and  _114
REMARK   47  A    between atoms: _116  and  _118
REMARK   48  A    between atoms: _118  and  _119
REMARK   49  A    between atoms: _118  and  _121
REMARK   50  A    between atoms: _124  and  _126
REMARK   51  A    between atoms: _126  and  _127
REMARK   52  A    between atoms: _126  and  _129
REMARK   53  A    between atoms: _129  and  _130
REMARK   54  A    between atoms: _136  and  _138
REMARK   55  A    between atoms: _138  and  _139
REMARK   56  A    between atoms: _138  and  _141
REMARK   57  A    between atoms: _144  and  _146
REMARK   58  A    between atoms: _146  and  _147
REMARK   59  A    between atoms: _146  and  _149
REMARK   60  A    between atoms: _149  and  _150
REMARK   61  A    between atoms: _156  and  _158
REMARK   62  A    between atoms: _158  and  _159
REMARK   63  A    between atoms: _158  and  _161
REMARK   64  A    between atoms: _161  and  _162
REMARK   65  A    between atoms: _167  and  _168
REMARK   66  A    between atoms: _170  and  _172
REMARK   67  A    between atoms: _172  and  _173
REMARK   68  A    between atoms: _172  and  _175
REMARK   69  A    between atoms: _175  and  _176
REMARK   70  A    between atoms: _176  and  _177
REMARK   71  A    between atoms: _179  and  _181
REMARK   72  A    between atoms: _181  and  _182
REMARK   73  A    between atoms: _181  and  _184
REMARK   74  A    between atoms: _184  and  _185
REMARK   75  A    between atoms: _190  and  _191
REMARK   76  A    between atoms: _193  and  _195
REMARK   77  A    between atoms: _195  and  _196
REMARK   78  A    between atoms: _195  and  _198
REMARK   79  A    between atoms: _198  and  _199
REMARK   80  A    between atoms: _199  and  _200
REMARK   81  A    between atoms: _200  and  _201
REMARK   82  A    between atoms: _210  and  _212
REMARK   83  A    between atoms: _212  and  _213
REMARK   84  A    between atoms: _212  and  _215
REMARK   85  A    between atoms: _215  and  _216
REMARK   86  A    between atoms: _216  and  _217
REMARK   87  A    between atoms: _220  and  _222
REMARK   88  A    between atoms: _222  and  _223
REMARK   89  A    between atoms: _222  and  _225
REMARK   90  A    between atoms: _225  and  _226
REMARK   91  A    between atoms: _226  and  _227
REMARK   92  A    between atoms: _232  and  _234
REMARK   93  A    between atoms: _234  and  _235
REMARK   94  A    between atoms: _234  and  _237
REMARK   95  A    between atoms: _237  and  _238
REMARK   96  A    between atoms: _238  and  _239
REMARK   97  A    between atoms: _239  and  _240
REMARK   98  A    between atoms: _240  and  _241
REMARK   99  A    between atoms: _245  and  _247
REMARK  100  A    between atoms: _247  and  _248
REMARK  101  A    between atoms: _251  and  _253
REMARK  102  A    between atoms: _253  and  _254
REMARK  103  A    between atoms: _256  and  _258
REMARK  104  A    between atoms: _258  and  _259
REMARK  105  A    between atoms: _258  and  _261
REMARK  106  A    between atoms: _261  and  _262
REMARK  107  A    between atoms: _267  and  _269
REMARK  108  A    between atoms: _269  and  _270
REMARK  109  A    between atoms: _269  and  _272
REMARK  110  A    between atoms: _272  and  _273
REMARK  111  A    between atoms: _273  and  _274
REMARK  112  A    between atoms: _277  and  _279
REMARK  113  A    between atoms: _279  and  _280
REMARK  114  A    between atoms: _279  and  _282
REMARK  115  A    between atoms: _282  and  _283
REMARK  116  A    between atoms: _283  and  _284
REMARK  117  A    between atoms: _289  and  _291
REMARK  118  A    between atoms: _291  and  _292
REMARK  119  A    between atoms: _291  and  _294
REMARK  120  A    between atoms: _294  and  _295
REMARK  121  A    between atoms: _297  and  _299
REMARK  122  A    between atoms: _299  and  _300
REMARK  123  A    between atoms: _299  and  _302
REMARK  124  A    between atoms: _302  and  _303
REMARK  125  A    between atoms: _309  and  _311
REMARK  126  A    between atoms: _311  and  _312
REMARK  127  A    between atoms: _311  and  _314
REMARK  128  A    between atoms: _314  and  _315
REMARK  129  A    between atoms: _315  and  _316
REMARK  130  A    between atoms: _316  and  _317
REMARK  131  A    between atoms: _326  and  _328
REMARK  132  A    between atoms: _328  and  _329
REMARK  133  A    between atoms: _328  and  _331
REMARK  134  A    between atoms: _334  and  _336
REMARK  135  A    between atoms: _336  and  _337
REMARK  136  A    between atoms: _336  and  _339
REMARK  137  A    between atoms: _339  and  _340
REMARK  138  A    between atoms: _343  and  _345
REMARK  139  A    between atoms: _345  and  _346
REMARK  140  A    between atoms: _345  and  _348
REMARK  141  A    between atoms: _348  and  _349
REMARK  142  A    between atoms: _352  and  _354
REMARK  143  A    between atoms: _354  and  _355
REMARK  144  A    between atoms: _354  and  _357
REMARK  145  A    between atoms: _357  and  _358
REMARK  146  A    between atoms: _358  and  _359
REMARK  147  A    between atoms: _359  and  _360
REMARK  148  A    between atoms: _369  and  _371
REMARK  149  A    between atoms: _371  and  _372
REMARK  150  A    between atoms: _371  and  _374
REMARK  151  A    between atoms: _374  and  _375
REMARK  152  A    between atoms: _378  and  _380
REMARK  153  A    between atoms: _380  and  _381
REMARK  154  A    between atoms: _380  and  _383
REMARK  155  A    between atoms: _383  and  _384
REMARK  156  A    between atoms: _387  and  _389
REMARK  157  A    between atoms: _389  and  _390
REMARK  158  A    between atoms: _389  and  _392
REMARK  159  A    between atoms: _392  and  _393
REMARK  160  A    between atoms: _398  and  _399
REMARK  161  A    between atoms: _401  and  _403
REMARK  162  A    between atoms: _403  and  _404
REMARK  163  A    between atoms: _403  and  _406
REMARK  164  A    between atoms: _406  and  _407
REMARK  165  A    between atoms: _412  and  _413
REMARK  166  A    between atoms: _415  and  _417
REMARK  167  A    between atoms: _417  and  _418
REMARK  168  A    between atoms: _417  and  _420
REMARK  169  A    between atoms: _420  and  _421
REMARK  170  A    between atoms: _424  and  _426
REMARK  171  A    between atoms: _426  and  _427
REMARK  172  A    between atoms: _426  and  _429
REMARK  173  A    between atoms: _429  and  _430
REMARK  174  A    between atoms: _430  and  _431
REMARK  175  A    between atoms: _436  and  _438
REMARK  176  A    between atoms: _438  and  _439
REMARK  177  A    between atoms: _438  and  _441
REMARK  178  A    between atoms: _444  and  _446
REMARK  179  A    between atoms: _446  and  _447
REMARK  180  A    between atoms: _446  and  _449
REMARK  181  A    between atoms: _449  and  _450
REMARK  182  A    between atoms: _453  and  _455
REMARK  183  A    between atoms: _455  and  _456
REMARK  184  A    between atoms: _455  and  _458
REMARK  185  A    between atoms: _458  and  _459
REMARK  186  A    between atoms: _461  and  _463
REMARK  187  A    between atoms: _463  and  _464
REMARK  188  A    between atoms: _466  and  _468
REMARK  189  A    between atoms: _468  and  _469
REMARK  190  A    between atoms: _468  and  _471
REMARK  191  A    between atoms: _471  and  _472
REMARK  192  A    between atoms: _472  and  _774
REMARK  193  A    between atoms: _473  and  _475
REMARK  194  A    between atoms: _475  and  _476
REMARK  195  A    between atoms: _475  and  _478
REMARK  196  A    between atoms: _478  and  _479
REMARK  197  A    between atoms: _484  and  _485
REMARK  198  A    between atoms: _487  and  _489
REMARK  199  A    between atoms: _489  and  _490
REMARK  200  A    between atoms: _489  and  _492
REMARK  201  A    between atoms: _492  and  _493
REMARK  202  A    between atoms: _493  and  _494
REMARK  203  A    between atoms: _499  and  _501
REMARK  204  A    between atoms: _501  and  _502
REMARK  205  A    between atoms: _501  and  _504
REMARK  206  A    between atoms: _504  and  _505
REMARK  207  A    between atoms: _505  and  _506
REMARK  208  A    between atoms: _511  and  _513
REMARK  209  A    between atoms: _513  and  _514
REMARK  210  A    between atoms: _513  and  _516
REMARK  211  A    between atoms: _516  and  _517
REMARK  212  A    between atoms: _522  and  _523
REMARK  213  A    between atoms: _525  and  _527
REMARK  214  A    between atoms: _527  and  _528
REMARK  215  A    between atoms: _531  and  _533
REMARK  216  A    between atoms: _533  and  _534
REMARK  217  A    between atoms: _533  and  _536
REMARK  218  A    between atoms: _536  and  _537
REMARK  219  A    between atoms: _542  and  _543
REMARK  220  A    between atoms: _545  and  _547
REMARK  221  A    between atoms: _547  and  _548
REMARK  222  A    between atoms: _547  and  _550
REMARK  223  A    between atoms: _550  and  _551
REMARK  224  A    between atoms: _556  and  _557
REMARK  225  A    between atoms: _559  and  _561
REMARK  226  A    between atoms: _561  and  _562
REMARK  227  A    between atoms: _561  and  _564
REMARK  228  A    between atoms: _564  and  _565
REMARK  229  A    between atoms: _568  and  _570
REMARK  230  A    between atoms: _570  and  _571
REMARK  231  A    between atoms: _574  and  _576
REMARK  232  A    between atoms: _576  and  _577
REMARK  233  A    between atoms: _580  and  _582
REMARK  234  A    between atoms: _582  and  _583
REMARK  235  A    between atoms: _582  and  _585
REMARK  236  A    between atoms: _585  and  _586
REMARK  237  A    between atoms: _589  and  _591
REMARK  238  A    between atoms: _591  and  _592
REMARK  239  A    between atoms: _591  and  _594
REMARK  240  A    between atoms: _594  and  _595
REMARK  241  A    between atoms: _598  and  _600
REMARK  242  A    between atoms: _600  and  _601
REMARK  243  A    between atoms: _600  and  _603
REMARK  244  A    between atoms: _603  and  _604
REMARK  245  A    between atoms: _607  and  _609
REMARK  246  A    between atoms: _609  and  _610
REMARK  247  A    between atoms: _609  and  _612
REMARK  248  A    between atoms: _612  and  _613
REMARK  249  A    between atoms: _613  and  _614
REMARK  250  A    between atoms: _614  and  _615
REMARK  251  A    between atoms: _615  and  _616
REMARK  252  A    between atoms: _620  and  _622
REMARK  253  A    between atoms: _622  and  _623
REMARK  254  A    between atoms: _622  and  _625
REMARK  255  A    between atoms: _625  and  _626
REMARK  256  A    between atoms: _631  and  _633
REMARK  257  A    between atoms: _633  and  _634
REMARK  258  A    between atoms: _633  and  _636
REMARK  259  A    between atoms: _636  and  _637
REMARK  260  A    between atoms: _637  and  _638
REMARK  261  A    between atoms: _638  and  _639
REMARK  262  A    between atoms: _639  and  _640
REMARK  263  A    between atoms: _644  and  _646
REMARK  264  A    between atoms: _646  and  _647
REMARK  265  A    between atoms: _646  and  _649
REMARK  266  A    between atoms: _649  and  _650
REMARK  267  A    between atoms: _660  and  _662
REMARK  268  A    between atoms: _662  and  _663
REMARK  269  A    between atoms: _666  and  _668
REMARK  270  A    between atoms: _668  and  _669
REMARK  271  A    between atoms: _671  and  _673
REMARK  272  A    between atoms: _673  and  _674
REMARK  273  A    between atoms: _673  and  _676
REMARK  274  A    between atoms: _676  and  _677
REMARK  275  A    between atoms: _677  and  _678
REMARK  276  A    between atoms: _681  and  _683
REMARK  277  A    between atoms: _683  and  _684
REMARK  278  A    between atoms: _687  and  _689
REMARK  279  A    between atoms: _689  and  _690
REMARK  280  A    between atoms: _689  and  _692
REMARK  281  A    between atoms: _692  and  _693
REMARK  282  A    between atoms: _693  and  _694
REMARK  283  A    between atoms: _694  and  _695
REMARK  284  A    between atoms: _704  and  _706
REMARK  285  A    between atoms: _706  and  _707
REMARK  286  A    between atoms: _706  and  _709
REMARK  287  A    between atoms: _709  and  _710
REMARK  288  A    between atoms: _713  and  _715
REMARK  289  A    between atoms: _715  and  _716
REMARK  290  A    between atoms: _715  and  _718
REMARK  291  A    between atoms: _718  and  _719
REMARK  292  A    between atoms: _719  and  _720
REMARK  293  A    between atoms: _720  and  _721
REMARK  294  A    between atoms: _730  and  _732
REMARK  295  A    between atoms: _732  and  _733
REMARK  296  A    between atoms: _736  and  _738
REMARK  297  A    between atoms: _738  and  _739
REMARK  298  A    between atoms: _738  and  _741
REMARK  299  A    between atoms: _741  and  _742
REMARK  300  A    between atoms: _747  and  _748
REMARK  301  A    between atoms: _750  and  _752
REMARK  302  A    between atoms: _752  and  _753
REMARK  303  A    between atoms: _752  and  _755
REMARK  304  A    between atoms: _755  and  _756
REMARK  305  A    between atoms: _759  and  _761
REMARK  306  A    between atoms: _761  and  _762
REMARK  307  A    between atoms: _761  and  _764
REMARK  308  A    between atoms: _764  and  _765
REMARK  309  A    between atoms: _768  and  _770
REMARK  310  A    between atoms: _770  and  _771
REMARK  311  A    between atoms: _770  and  _773
REMARK  312  A    between atoms: _773  and  _774
REMARK  313  A    between atoms: _775  and  _777
REMARK  314  A    between atoms: _777  and  _778
REMARK  315  A    between atoms: _777  and  _780
REMARK  316  A    between atoms: _783  and  _785
REMARK  317  A    between atoms: _785  and  _786
REMARK  318  A    between atoms: _785  and  _788
REMARK  319  A    between atoms: _788  and  _789
REMARK  320  A    between atoms: _789  and  _790
REMARK  321  A    between atoms: _793  and  _795
REMARK  322  A    between atoms: _795  and  _796
REMARK  323  A    between atoms: _795  and  _798
REMARK  324  A    between atoms: _798  and  _799
REMARK  325  A    between atoms: _809  and  _811
REMARK  326  A    between atoms: _811  and  _812
REMARK  327  A    between atoms: _811  and  _814
REMARK  328  A    between atoms: _814  and  _815
REMARK  329  A    between atoms: _818  and  _820
REMARK  330  A    between atoms: _820  and  _821
REMARK  331  A    between atoms: _820  and  _823
REMARK  332  A    between atoms: _823  and  _824
REMARK  333  A    between atoms: _829  and  _830
REMARK                            x       y       z     vdW  Elec       q    Type
REMARK                         _______ _______ _______ _____ _____    ______ ____
ROOT
ATOM      1  CA  TYR A   3      -7.425   1.667  28.986  0.00  0.00    +0.153 C 
ENDROOT
BRANCH   1   2
ATOM      2  C   TYR A   3      -7.094   2.843  28.086  0.00  0.00    +0.241 C 
ATOM      3  O   TYR A   3      -6.840   3.961  28.555  0.00  0.00    -0.273 OA
ATOM      4  N   PHE A   4      -7.088   2.558  26.790  0.00  0.00    -0.297 N 
ATOM      5  H   PHE A   4      -7.273   1.577  26.500  0.00  0.00    +0.150 HD
BRANCH   4   6
ATOM      6  CA  PHE A   4      -6.837   3.544  25.758  0.00  0.00    +0.153 C 
BRANCH   6   7
ATOM      7  C   PHE A   4      -8.120   3.618  24.955  0.00  0.00    +0.241 C 
ATOM      8  N   VAL A   5      -8.681   4.816  24.865  0.00  0.00    -0.297 N 
ATOM      9  H   VAL A   5      -8.201   5.633  25.294  0.00  0.00    +0.150 HD
ATOM     10  O   PHE A   4      -8.592   2.604  24.443  0.00  0.00    -0.273 OA
BRANCH   8  11
ATOM     11  CA  VAL A   5      -9.950   5.019  24.183  0.00  0.00    +0.149 C 
BRANCH  11  12
ATOM     12  C   VAL A   5      -9.742   5.989  23.037  0.00  0.00    +0.241 C 
ATOM     13  O   VAL A   5      -9.023   6.986  23.183  0.00  0.00    -0.273 OA
ATOM     14  N   THR A   6     -10.340   5.666  21.891  0.00  0.00    -0.296 N 
ATOM     15  H   THR A   6     -10.870   4.773  21.837  0.00  0.00    +0.150 HD
BRANCH  14  16
ATOM     16  CA  THR A   6     -10.278   6.517  20.713  0.00  0.00    +0.164 C 
BRANCH  16  17
ATOM     17  CB  THR A   6      -9.365   5.910  19.643  0.00  0.00    +0.136 C 
ATOM     18  CG2 THR A   6      -9.275   6.826  18.451  0.00  0.00    +0.034 C 
BRANCH  17  19
ATOM     19  OG1 THR A   6      -8.050   5.720  20.186  0.00  0.00    -0.382 OA
ATOM     20  HG1 THR A   6      -8.100   5.108  20.963  0.00  0.00    +0.210 HD
ENDBRANCH  17  19
ENDBRANCH  16  17
BRANCH  16  21
ATOM     21  C   THR A   6     -11.683   6.656  20.130  0.00  0.00    +0.229 C 
ATOM     22  O   THR A   6     -12.419   5.676  20.046  0.00  0.00    -0.286 OA
ENDBRANCH  16  21
ENDBRANCH  14  16
ENDBRANCH  11  12
BRANCH  11  23
ATOM     23  CB  VAL A   5     -11.003   5.566  25.154  0.00  0.00    +0.027 C 
ATOM     24  CG2 VAL A   5     -11.270   4.536  26.253  0.00  0.00    +0.002 C 
ATOM     25  CG1 VAL A   5     -12.285   5.924  24.418  0.00  0.00    +0.002 C 
ENDBRANCH  11  23
ENDBRANCH   8  11
ENDBRANCH   6   7
BRANCH   6  26
ATOM     26  CB  PHE A   4      -5.690   3.085  24.854  0.00  0.00    +0.055 C 
BRANCH  26  27
ATOM     27  CG  PHE A   4      -4.323   3.245  25.475  0.00  0.00    -0.020 A 
ATOM     28  CD2 PHE A   4      -3.948   2.471  26.559  0.00  0.00    -0.004 A 
ATOM     29  CE2 PHE A   4      -2.693   2.615  27.138  0.00  0.00    -0.000 A 
ATOM     30  CZ  PHE A   4      -1.797   3.530  26.629  0.00  0.00    -0.000 A 
ATOM     31  CE1 PHE A   4      -2.150   4.311  25.537  0.00  0.00    -0.000 A 
ATOM     32  CD1 PHE A   4      -3.418   4.167  24.969  0.00  0.00    -0.004 A 
ENDBRANCH  26  27
ENDBRANCH   6  26
ENDBRANCH   4   6
ENDBRANCH   1   2
BRANCH   1  34
ATOM     33  C   ARG A   2      -5.828   0.521  30.424  0.00  0.00    +0.241 C 
ATOM     34  N   TYR A   3      -6.506   1.619  30.119  0.00  0.00    -0.297 N 
ATOM     35  H   TYR A   3      -6.379   2.470  30.703  0.00  0.00    +0.150 HD
ATOM     36  O   ARG A   2      -6.000  -0.565  29.861  0.00  0.00    -0.273 OA
BRANCH  33  37
ATOM     37  CA  ARG A   2      -4.779   0.680  31.510  0.00  0.00    +0.149 C 
BRANCH  37  40
ATOM     38  C   LEU A   1      -4.870  -0.420  33.678  0.00  0.00    +0.238 C 
ATOM     39  O   LEU A   1      -5.174   0.618  34.270  0.00  0.00    -0.274 OA
ATOM     40  N   ARG A   2      -4.710  -0.497  32.361  0.00  0.00    -0.297 N 
ATOM     41  H   ARG A   2      -4.530  -1.425  31.927  0.00  0.00    +0.150 HD
BRANCH  38  42
ATOM     42  CA  LEU A   1      -4.641  -1.701  34.450  0.00  0.00    +0.145 C 
BRANCH  42  43
ATOM     43  N   LEU A   1      -3.450  -1.473  35.243  0.00  0.00    -0.238 NA
ATOM     44  H   LEU A   1      -3.422  -0.648  35.876  0.00  0.00    +0.142 HD
ENDBRANCH  42  43
BRANCH  42  45
ATOM     45  CB  LEU A   1      -5.843  -1.994  35.342  0.00  0.00    +0.026 C 
BRANCH  45  46
ATOM     46  CG  LEU A   1      -7.172  -2.145  34.600  0.00  0.00    +0.002 C 
ATOM     47  CD2 LEU A   1      -8.268  -2.540  35.567  0.00  0.00    +0.000 C 
ATOM     48  CD1 LEU A   1      -7.047  -3.146  33.450  0.00  0.00    +0.000 C 
ENDBRANCH  45  46
ENDBRANCH  42  45
ENDBRANCH  38  42
ENDBRANCH  37  40
BRANCH  37  49
ATOM     49  CB  ARG A   2      -3.433   0.917  30.832  0.00  0.00    +0.033 C 
BRANCH  49  50
ATOM     50  CG  ARG A   2      -2.221   0.741  31.735  0.00  0.00    +0.045 C 
BRANCH  50  51
ATOM     51  CD  ARG A   2      -0.923   0.921  30.957  0.00  0.00    +0.174 C 
BRANCH  51  52
ATOM     52  NE  ARG A   2       0.258   0.769  31.811  0.00  0.00    -0.265 N 
ATOM     53  CZ  ARG A   2       0.678   1.687  32.680  0.00  0.00    +0.342 C 
ATOM     54  NH2 ARG A   2       1.764   1.467  33.411  0.00  0.00    -0.292 N 
ATOM     55 HH21 ARG A   2       2.089   2.186  34.089  0.00  0.00    +0.255 HD
ATOM     56 HH22 ARG A   2       2.290   0.576  33.306  0.00  0.00    +0.255 HD
ATOM     57  NH1 ARG A   2       0.006   2.822  32.830  0.00  0.00    -0.292 N 
ATOM     58 HH11 ARG A   2       0.337   3.536  33.509  0.00  0.00    +0.255 HD
ATOM     59 HH12 ARG A   2      -0.851   2.997  32.268  0.00  0.00    +0.255 HD
ATOM     60  HE  ARG A   2       0.804  -0.113  31.734  0.00  0.00    +0.259 HD
ENDBRANCH  51  52
ENDBRANCH  50  51
ENDBRANCH  49  50
ENDBRANCH  37  49
ENDBRANCH  33  37
ENDBRANCH   1  34
BRANCH   1  61
ATOM     61  CB  TYR A   3      -8.884   1.741  29.440  0.00  0.00    +0.055 C 
BRANCH  61  62
ATOM     62  CG  TYR A   3      -9.342   0.467  30.105  0.00  0.00    -0.020 A 
ATOM     63  CD2 TYR A   3      -9.299   0.336  31.490  0.00  0.00    -0.001 A 
ATOM     64  CE2 TYR A   3      -9.692  -0.831  32.110  0.00  0.00    +0.036 A 
ATOM     65  CZ  TYR A   3     -10.127  -1.899  31.352  0.00  0.00    +0.134 A 
ATOM     66  CE1 TYR A   3     -10.178  -1.809  29.961  0.00  0.00    +0.036 A 
ATOM     67  CD1 TYR A   3      -9.781  -0.619  29.348  0.00  0.00    -0.001 A 
BRANCH  65  68
ATOM     68  OH  TYR A   3     -10.516  -3.049  32.000  0.00  0.00    -0.506 OA
ATOM     69  HH  TYR A   3     -10.801  -3.722  31.332  0.00  0.00    +0.292 HD
ENDBRANCH  65  68
ENDBRANCH  61  62
ENDBRANCH   1  61
TORSDOF 26
REMARK  Name = ../refined-set-2016/3p9l/3p9l_pocket.pdb
REMARK  333 active torsions:
REMARK  status: ('A' for Active; 'I' for Inactive)
REMARK    1  A    between atoms: _1  and  _3
REMARK    2  A    between atoms: _3  and  _4
REMARK    3  A    between atoms: _3  and  _6
REMARK    4  A    between atoms: _6  and  _7
REMARK    5  A    between atoms: _10  and  _12
REMARK    6  A    between atoms: _12  and  _13
REMARK    7  A    between atoms: _12  and  _15
REMARK    8  A    between atoms: _15  and  _16
REMARK    9  A    between atoms: _16  and  _17
REMARK   10  A    between atoms: _17  and  _18
REMARK   11  A    between atoms: _27  and  _29
REMARK   12  A    between atoms: _29  and  _30
REMARK   13  A    between atoms: _29  and  _32
REMARK   14  A    between atoms: _32  and  _33
REMARK   15  A    between atoms: _38  and  _39
REMARK   16  A    between atoms: _41  and  _43
REMARK   17  A    between atoms: _43  and  _44
REMARK   18  A    between atoms: _43  and  _46
REMARK   19  A    between atoms: _46  and  _47
REMARK   20  A    between atoms: _53  and  _55
REMARK   21  A    between atoms: _55  and  _56
REMARK   22  A    between atoms: _55  and  _58
REMARK   23  A    between atoms: _61  and  _63
REMARK   24  A    between atoms: _63  and  _64
REMARK   25  A    between atoms: _63  and  _66
REMARK   26  A    between atoms: _66  and  _67
REMARK   27  A    between atoms: _70  and  _72
REMARK   28  A    between atoms: _72  and  _73
REMARK   29  A    between atoms: _72  and  _75
REMARK   30  A    between atoms: _75  and  _76
REMARK   31  A    between atoms: _81  and  _82
REMARK   32  A    between atoms: _84  and  _86
REMARK   33  A    between atoms: _86  and  _87
REMARK   34  A    between atoms: _86  and  _89
REMARK   35  A    between atoms: _89  and  _90
REMARK   36  A    between atoms: _90  and  _91
REMARK   37  A    between atoms: _93  and  _95
REMARK   38  A    between atoms: _95  and  _96
REMARK   39  A    between atoms: _95  and  _98
REMARK   40  A    between atoms: _98  and  _99
REMARK   41  A    between atoms: _99  and  _100
REMARK   42  A    between atoms: _103  and  _105
REMARK   43  A    between atoms: _105  and  _106
REMARK   44  A    between atoms: _105  and  _108
REMARK   45  A    between atoms: _111  and  _113
REMARK   46  A    between atoms: _113  and  _114
REMARK   47  A    between atoms: _116  and  _118
REMARK   48  A    between atoms: _118  and  _119
REMARK   49  A    between atoms: _118  and  _121
REMARK   50  A    between atoms: _124  and  _126
REMARK   51  A    between atoms: _126  and  _127
REMARK   52  A    between atoms: _126  and  _129
REMARK   53  A    between atoms: _129  and  _130
REMARK   54  A    between atoms: _136  and  _138
REMARK   55  A    between atoms: _138  and  _139
REMARK   56  A    between atoms: _138  and  _141
REMARK   57  A    between atoms: _144  and  _146
REMARK   58  A    between atoms: _146  and  _147
REMARK   59  A    between atoms: _146  and  _149
REMARK   60  A    between atoms: _149  and  _150
REMARK   61  A    between atoms: _156  and  _158
REMARK   62  A    between atoms: _158  and  _159
REMARK   63  A    between atoms: _158  and  _161
REMARK   64  A    between atoms: _161  and  _162
REMARK   65  A    between atoms: _167  and  _168
REMARK   66  A    between atoms: _170  and  _172
REMARK   67  A    between atoms: _172  and  _173
REMARK   68  A    between atoms: _172  and  _175
REMARK   69  A    between atoms: _175  and  _176
REMARK   70  A    between atoms: _176  and  _177
REMARK   71  A    between atoms: _179  and  _181
REMARK   72  A    between atoms: _181  and  _182
REMARK   73  A    between atoms: _181  and  _184
REMARK   74  A    between atoms: _184  and  _185
REMARK   75  A    between atoms: _190  and  _191
REMARK   76  A    between atoms: _193  and  _195
REMARK   77  A    between atoms: _195  and  _196
REMARK   78  A    between atoms: _195  and  _198
REMARK   79  A    between atoms: _198  and  _199
REMARK   80  A    between atoms: _199  and  _200
REMARK   81  A    between atoms: _200  and  _201
REMARK   82  A    between atoms: _210  and  _212
REMARK   83  A    between atoms: _212  and  _213
REMARK   84  A    between atoms: _212  and  _215
REMARK   85  A    between atoms: _215  and  _216
REMARK   86  A    between atoms: _216  and  _217
REMARK   87  A    between atoms: _220  and  _222
REMARK   88  A    between atoms: _222  and  _223
REMARK   89  A    between atoms: _222  and  _225
REMARK   90  A    between atoms: _225  and  _226
REMARK   91  A    between atoms: _226  and  _227
REMARK   92  A    between atoms: _232  and  _234
REMARK   93  A    between atoms: _234  and  _235
REMARK   94  A    between atoms: _234  and  _237
REMARK   95  A    between atoms: _237  and  _238
REMARK   96  A    between atoms: _238  and  _239
REMARK   97  A    between atoms: _239  and  _240
REMARK   98  A    between atoms: _240  and  _241
REMARK   99  A    between atoms: _245  and  _247
REMARK  100  A    between atoms: _247  and  _248
REMARK  101  A    between atoms: _251  and  _253
REMARK  102  A    between atoms: _253  and  _254
REMARK  103  A    between atoms: _256  and  _258
REMARK  104  A    between atoms: _258  and  _259
REMARK  105  A    between atoms: _258  and  _261
REMARK  106  A    between atoms: _261  and  _262
REMARK  107  A    between atoms: _267  and  _269
REMARK  108  A    between atoms: _269  and  _270
REMARK  109  A    between atoms: _269  and  _272
REMARK  110  A    between atoms: _272  and  _273
REMARK  111  A    between atoms: _273  and  _274
REMARK  112  A    between atoms: _277  and  _279
REMARK  113  A    between atoms: _279  and  _280
REMARK  114  A    between atoms: _279  and  _282
REMARK  115  A    between atoms: _282  and  _283
REMARK  116  A    between atoms: _283  and  _284
REMARK  117  A    between atoms: _289  and  _291
REMARK  118  A    between atoms: _291  and  _292
REMARK  119  A    between atoms: _291  and  _294
REMARK  120  A    between atoms: _294  and  _295
REMARK  121  A    between atoms: _297  and  _299
REMARK  122  A    between atoms: _299  and  _300
REMARK  123  A    between atoms: _299  and  _302
REMARK  124  A    between atoms: _302  and  _303
REMARK  125  A    between atoms: _309  and  _311
REMARK  126  A    between atoms: _311  and  _312
REMARK  127  A    between atoms: _311  and  _314
REMARK  128  A    between atoms: _314  and  _315
REMARK  129  A    between atoms: _315  and  _316
REMARK  130  A    between atoms: _316  and  _317
REMARK  131  A    between atoms: _326  and  _328
REMARK  132  A    between atoms: _328  and  _329
REMARK  133  A    between atoms: _328  and  _331
REMARK  134  A    between atoms: _334  and  _336
REMARK  135  A    between atoms: _336  and  _337
REMARK  136  A    between atoms: _336  and  _339
REMARK  137  A    between atoms: _339  and  _340
REMARK  138  A    between atoms: _343  and  _345
REMARK  139  A    between atoms: _345  and  _346
REMARK  140  A    between atoms: _345  and  _348
REMARK  141  A    between atoms: _348  and  _349
REMARK  142  A    between atoms: _352  and  _354
REMARK  143  A    between atoms: _354  and  _355
REMARK  144  A    between atoms: _354  and  _357
REMARK  145  A    between atoms: _357  and  _358
REMARK  146  A    between atoms: _358  and  _359
REMARK  147  A    between atoms: _359  and  _360
REMARK  148  A    between atoms: _369  and  _371
REMARK  149  A    between atoms: _371  and  _372
REMARK  150  A    between atoms: _371  and  _374
REMARK  151  A    between atoms: _374  and  _375
REMARK  152  A    between atoms: _378  and  _380
REMARK  153  A    between atoms: _380  and  _381
REMARK  154  A    between atoms: _380  and  _383
REMARK  155  A    between atoms: _383  and  _384
REMARK  156  A    between atoms: _387  and  _389
REMARK  157  A    between atoms: _389  and  _390
REMARK  158  A    between atoms: _389  and  _392
REMARK  159  A    between atoms: _392  and  _393
REMARK  160  A    between atoms: _398  and  _399
REMARK  161  A    between atoms: _401  and  _403
REMARK  162  A    between atoms: _403  and  _404
REMARK  163  A    between atoms: _403  and  _406
REMARK  164  A    between atoms: _406  and  _407
REMARK  165  A    between atoms: _412  and  _413
REMARK  166  A    between atoms: _415  and  _417
REMARK  167  A    between atoms: _417  and  _418
REMARK  168  A    between atoms: _417  and  _420
REMARK  169  A    between atoms: _420  and  _421
REMARK  170  A    between atoms: _424  and  _426
REMARK  171  A    between atoms: _426  and  _427
REMARK  172  A    between atoms: _426  and  _429
REMARK  173  A    between atoms: _429  and  _430
REMARK  174  A    between atoms: _430  and  _431
REMARK  175  A    between atoms: _436  and  _438
REMARK  176  A    between atoms: _438  and  _439
REMARK  177  A    between atoms: _438  and  _441
REMARK  178  A    between atoms: _444  and  _446
REMARK  179  A    between atoms: _446  and  _447
REMARK  180  A    between atoms: _446  and  _449
REMARK  181  A    between atoms: _449  and  _450
REMARK  182  A    between atoms: _453  and  _455
REMARK  183  A    between atoms: _455  and  _456
REMARK  184  A    between atoms: _455  and  _458
REMARK  185  A    between atoms: _458  and  _459
REMARK  186  A    between atoms: _461  and  _463
REMARK  187  A    between atoms: _463  and  _464
REMARK  188  A    between atoms: _466  and  _468
REMARK  189  A    between atoms: _468  and  _469
REMARK  190  A    between atoms: _468  and  _471
REMARK  191  A    between atoms: _471  and  _472
REMARK  192  A    between atoms: _472  and  _774
REMARK  193  A    between atoms: _473  and  _475
REMARK  194  A    between atoms: _475  and  _476
REMARK  195  A    between atoms: _475  and  _478
REMARK  196  A    between atoms: _478  and  _479
REMARK  197  A    between atoms: _484  and  _485
REMARK  198  A    between atoms: _487  and  _489
REMARK  199  A    between atoms: _489  and  _490
REMARK  200  A    between atoms: _489  and  _492
REMARK  201  A    between atoms: _492  and  _493
REMARK  202  A    between atoms: _493  and  _494
REMARK  203  A    between atoms: _499  and  _501
REMARK  204  A    between atoms: _501  and  _502
REMARK  205  A    between atoms: _501  and  _504
REMARK  206  A    between atoms: _504  and  _505
REMARK  207  A    between atoms: _505  and  _506
REMARK  208  A    between atoms: _511  and  _513
REMARK  209  A    between atoms: _513  and  _514
REMARK  210  A    between atoms: _513  and  _516
REMARK  211  A    between atoms: _516  and  _517
REMARK  212  A    between atoms: _522  and  _523
REMARK  213  A    between atoms: _525  and  _527
REMARK  214  A    between atoms: _527  and  _528
REMARK  215  A    between atoms: _531  and  _533
REMARK  216  A    between atoms: _533  and  _534
REMARK  217  A    between atoms: _533  and  _536
REMARK  218  A    between atoms: _536  and  _537
REMARK  219  A    between atoms: _542  and  _543
REMARK  220  A    between atoms: _545  and  _547
REMARK  221  A    between atoms: _547  and  _548
REMARK  222  A    between atoms: _547  and  _550
REMARK  223  A    between atoms: _550  and  _551
REMARK  224  A    between atoms: _556  and  _557
REMARK  225  A    between atoms: _559  and  _561
REMARK  226  A    between atoms: _561  and  _562
REMARK  227  A    between atoms: _561  and  _564
REMARK  228  A    between atoms: _564  and  _565
REMARK  229  A    between atoms: _568  and  _570
REMARK  230  A    between atoms: _570  and  _571
REMARK  231  A    between atoms: _574  and  _576
REMARK  232  A    between atoms: _576  and  _577
REMARK  233  A    between atoms: _580  and  _582
REMARK  234  A    between atoms: _582  and  _583
REMARK  235  A    between atoms: _582  and  _585
REMARK  236  A    between atoms: _585  and  _586
REMARK  237  A    between atoms: _589  and  _591
REMARK  238  A    between atoms: _591  and  _592
REMARK  239  A    between atoms: _591  and  _594
REMARK  240  A    between atoms: _594  and  _595
REMARK  241  A    between atoms: _598  and  _600
REMARK  242  A    between atoms: _600  and  _601
REMARK  243  A    between atoms: _600  and  _603
REMARK  244  A    between atoms: _603  and  _604
REMARK  245  A    between atoms: _607  and  _609
REMARK  246  A    between atoms: _609  and  _610
REMARK  247  A    between atoms: _609  and  _612
REMARK  248  A    between atoms: _612  and  _613
REMARK  249  A    between atoms: _613  and  _614
REMARK  250  A    between atoms: _614  and  _615
REMARK  251  A    between atoms: _615  and  _616
REMARK  252  A    between atoms: _620  and  _622
REMARK  253  A    between atoms: _622  and  _623
REMARK  254  A    between atoms: _622  and  _625
REMARK  255  A    between atoms: _625  and  _626
REMARK  256  A    between atoms: _631  and  _633
REMARK  257  A    between atoms: _633  and  _634
REMARK  258  A    between atoms: _633  and  _636
REMARK  259  A    between atoms: _636  and  _637
REMARK  260  A    between atoms: _637  and  _638
REMARK  261  A    between atoms: _638  and  _639
REMARK  262  A    between atoms: _639  and  _640
REMARK  263  A    between atoms: _644  and  _646
REMARK  264  A    between atoms: _646  and  _647
REMARK  265  A    between atoms: _646  and  _649
REMARK  266  A    between atoms: _649  and  _650
REMARK  267  A    between atoms: _660  and  _662
REMARK  268  A    between atoms: _662  and  _663
REMARK  269  A    between atoms: _666  and  _668
REMARK  270  A    between atoms: _668  and  _669
REMARK  271  A    between atoms: _671  and  _673
REMARK  272  A    between atoms: _673  and  _674
REMARK  273  A    between atoms: _673  and  _676
REMARK  274  A    between atoms: _676  and  _677
REMARK  275  A    between atoms: _677  and  _678
REMARK  276  A    between atoms: _681  and  _683
REMARK  277  A    between atoms: _683  and  _684
REMARK  278  A    between atoms: _687  and  _689
REMARK  279  A    between atoms: _689  and  _690
REMARK  280  A    between atoms: _689  and  _692
REMARK  281  A    between atoms: _692  and  _693
REMARK  282  A    between atoms: _693  and  _694
REMARK  283  A    between atoms: _694  and  _695
REMARK  284  A    between atoms: _704  and  _706
REMARK  285  A    between atoms: _706  and  _707
REMARK  286  A    between atoms: _706  and  _709
REMARK  287  A    between atoms: _709  and  _710
REMARK  288  A    between atoms: _713  and  _715
REMARK  289  A    between atoms: _715  and  _716
REMARK  290  A    between atoms: _715  and  _718
REMARK  291  A    between atoms: _718  and  _719
REMARK  292  A    between atoms: _719  and  _720
REMARK  293  A    between atoms: _720  and  _721
REMARK  294  A    between atoms: _730  and  _732
REMARK  295  A    between atoms: _732  and  _733
REMARK  296  A    between atoms: _736  and  _738
REMARK  297  A    between atoms: _738  and  _739
REMARK  298  A    between atoms: _738  and  _741
REMARK  299  A    between atoms: _741  and  _742
REMARK  300  A    between atoms: _747  and  _748
REMARK  301  A    between atoms: _750  and  _752
REMARK  302  A    between atoms: _752  and  _753
REMARK  303  A    between atoms: _752  and  _755
REMARK  304  A    between atoms: _755  and  _756
REMARK  305  A    between atoms: _759  and  _761
REMARK  306  A    between atoms: _761  and  _762
REMARK  307  A    between atoms: _761  and  _764
REMARK  308  A    between atoms: _764  and  _765
REMARK  309  A    between atoms: _768  and  _770
REMARK  310  A    between atoms: _770  and  _771
REMARK  311  A    between atoms: _770  and  _773
REMARK  312  A    between atoms: _773  and  _774
REMARK  313  A    between atoms: _775  and  _777
REMARK  314  A    between atoms: _777  and  _778
REMARK  315  A    between atoms: _777  and  _780
REMARK  316  A    between atoms: _783  and  _785
REMARK  317  A    between atoms: _785  and  _786
REMARK  318  A    between atoms: _785  and  _788
REMARK  319  A    between atoms: _788  and  _789
REMARK  320  A    between atoms: _789  and  _790
REMARK  321  A    between atoms: _793  and  _795
REMARK  322  A    between atoms: _795  and  _796
REMARK  323  A    between atoms: _795  and  _798
REMARK  324  A    between atoms: _798  and  _799
REMARK  325  A    between atoms: _809  and  _811
REMARK  326  A    between atoms: _811  and  _812
REMARK  327  A    between atoms: _811  and  _814
REMARK  328  A    between atoms: _814  and  _815
REMARK  329  A    between atoms: _818  and  _820
REMARK  330  A    between atoms: _820  and  _821
REMARK  331  A    between atoms: _820  and  _823
REMARK  332  A    between atoms: _823  and  _824
REMARK  333  A    between atoms: _829  and  _830
REMARK                            x       y       z     vdW  Elec       q    Type
REMARK                         _______ _______ _______ _____ _____    ______ ____
ROOT
ATOM      1  C   MET A   2     -12.096   1.936  21.878  0.00  0.00    +0.241 C 
ATOM      2  N   GLU A   3     -12.216   0.832  22.614  0.00  0.00    -0.297 N 
ATOM      3  H   GLU A   3     -12.727   0.017  22.220  0.00  0.00    +0.150 HD
ATOM      4  O   MET A   2     -11.725   2.998  22.338  0.00  0.00    -0.273 OA
ENDROOT
BRANCH   2   5
ATOM      5  CA  GLU A   3     -11.656   0.732  23.947  0.00  0.00    +0.149 C 
BRANCH   5   6
ATOM      6  C   GLU A   3     -10.622  -0.387  23.907  0.00  0.00    +0.241 C 
ATOM      7  N   VAL A   4      -9.410  -0.098  24.352  0.00  0.00    -0.297 N 
ATOM      8  H   VAL A   4      -9.193   0.862  24.688  0.00  0.00    +0.150 HD
ATOM      9  O   GLU A   3     -10.904  -1.496  23.451  0.00  0.00    -0.273 OA
BRANCH   7  10
ATOM     10  CA  VAL A   4      -8.382  -1.128  24.369  0.00  0.00    +0.149 C 
BRANCH  10  11
ATOM     11  C   VAL A   4      -7.805  -1.194  25.780  0.00  0.00    +0.241 C 
ATOM     12  N   GLY A   5      -7.840  -2.381  26.375  0.00  0.00    -0.296 N 
ATOM     13  H   GLY A   5      -8.216  -3.204  25.863  0.00  0.00    +0.150 HD
ATOM     14  O   VAL A   4      -7.365  -0.179  26.335  0.00  0.00    -0.273 OA
BRANCH  12  15
ATOM     15  CA  GLY A   5      -7.357  -2.537  27.736  0.00  0.00    +0.163 C 
BRANCH  15  16
ATOM     16  C   GLY A   5      -6.065  -3.327  27.831  0.00  0.00    +0.229 C 
ATOM     17  O   GLY A   5      -5.877  -4.318  27.124  0.00  0.00    -0.286 OA
ENDBRANCH  15  16
ENDBRANCH  12  15
ENDBRANCH  10  11
BRANCH  10  18
ATOM     18  CB  VAL A   4      -7.275  -0.874  23.323  0.00  0.00    +0.027 C 
ATOM     19  CG2 VAL A   4      -6.342  -2.072  23.228  0.00  0.00    +0.002 C 
ATOM     20  CG1 VAL A   4      -7.892  -0.574  21.934  0.00  0.00    +0.002 C 
ENDBRANCH  10  18
ENDBRANCH   7  10
ENDBRANCH   5   6
BRANCH   5  21
ATOM     21  CB  GLU A   3     -12.741   0.434  25.007  0.00  0.00    +0.041 C 
BRANCH  21  22
ATOM     22  CG  GLU A   3     -13.805   1.535  25.126  0.00  0.00    +0.116 C 
BRANCH  22  23
ATOM     23  CD  GLU A   3     -14.891   1.241  26.164  0.00  0.00    +0.365 C 
ATOM     24  OE2 GLU A   3     -14.906   0.135  26.746  0.00  0.00    -0.246 OA
ATOM     25  OE1 GLU A   3     -15.729   2.136  26.407  0.00  0.00    -0.246 OA
ENDBRANCH  22  23
ENDBRANCH  21  22
ENDBRANCH   5  21
ENDBRANCH   2   5
BRANCH   1  26
ATOM     26  CA  MET A   2     -12.484   1.842  20.402  0.00  0.00    +0.149 C 
BRANCH  26  28
ATOM     27  C   TYR A   1     -14.307   2.816  19.153  0.00  0.00    +0.239 C 
ATOM     28  N   MET A   2     -13.319   2.966  20.031  0.00  0.00    -0.297 N 
ATOM     29  H   MET A   2     -13.144   3.899  20.455  0.00  0.00    +0.150 HD
ATOM     30  O   TYR A   1     -14.655   1.714  18.706  0.00  0.00    -0.274 OA
BRANCH  27  31
ATOM     31  CA  TYR A   1     -15.035   4.081  18.739  0.00  0.00    +0.149 C 
BRANCH  31  32
ATOM     32  N   TYR A   1     -15.316   4.042  17.308  0.00  0.00    -0.238 NA
ATOM     33  H   TYR A   1     -15.887   3.260  16.928  0.00  0.00    +0.142 HD
ENDBRANCH  31  32
BRANCH  31  34
ATOM     34  CB  TYR A   1     -16.339   4.202  19.540  0.00  0.00    +0.053 C 
BRANCH  34  35
ATOM     35  CG  TYR A   1     -16.112   4.271  21.028  0.00  0.00    -0.020 A 
ATOM     36  CD2 TYR A   1     -16.273   3.146  21.833  0.00  0.00    -0.001 A 
ATOM     37  CE2 TYR A   1     -16.058   3.213  23.194  0.00  0.00    +0.036 A 
ATOM     38  CZ  TYR A   1     -15.678   4.419  23.763  0.00  0.00    +0.134 A 
ATOM     39  CE1 TYR A   1     -15.513   5.546  22.985  0.00  0.00    +0.036 A 
ATOM     40  CD1 TYR A   1     -15.739   5.464  21.632  0.00  0.00    -0.001 A 
BRANCH  38  41
ATOM     41  OH  TYR A   1     -15.470   4.500  25.109  0.00  0.00    -0.506 OA
ATOM     42  HH  TYR A   1     -14.749   3.873  25.369  0.00  0.00    +0.292 HD
ENDBRANCH  38  41
ENDBRANCH  34  35
ENDBRANCH  31  34
ENDBRANCH  27  31
ENDBRANCH  26  28
BRANCH  26  43
ATOM     43  CB  MET A   2     -11.218   1.843  19.531  0.00  0.00    +0.041 C 
BRANCH  43  44
ATOM     44  CG  MET A   2     -10.362   0.605  19.691  0.00  0.00    +0.060 C 
BRANCH  44  45
ATOM     45  SD  MET A   2     -10.807  -0.651  18.474  0.00  0.00    -0.139 S 
ATOM     46  CE  MET A   2     -10.132   0.151  17.003  0.00  0.00    +0.069 C 
ENDBRANCH  44  45
ENDBRANCH  43  44
ENDBRANCH  26  43
ENDBRANCH   1  26
TORSDOF 20
REMARK  Name = ../refined-set-2016/3p9l/3p9l_pocket.pdb
REMARK  333 active torsions:
REMARK  status: ('A' for Active; 'I' for Inactive)
REMARK    1  A    between atoms: _1  and  _3
REMARK    2  A    between atoms: _3  and  _4
REMARK    3  A    between atoms: _3  and  _6
REMARK    4  A    between atoms: _6  and  _7
REMARK    5  A    between atoms: _10  and  _12
REMARK    6  A    between atoms: _12  and  _13
REMARK    7  A    between atoms: _12  and  _15
REMARK    8  A    between atoms: _15  and  _16
REMARK    9  A    between atoms: _16  and  _17
REMARK   10  A    between atoms: _17  and  _18
REMARK   11  A    between atoms: _27  and  _29
REMARK   12  A    between atoms: _29  and  _30
REMARK   13  A    between atoms: _29  and  _32
REMARK   14  A    between atoms: _32  and  _33
REMARK   15  A    between atoms: _38  and  _39
REMARK   16  A    between atoms: _41  and  _43
REMARK   17  A    between atoms: _43  and  _44
REMARK   18  A    between atoms: _43  and  _46
REMARK   19  A    between atoms: _46  and  _47
REMARK   20  A    between atoms: _53  and  _55
REMARK   21  A    between atoms: _55  and  _56
REMARK   22  A    between atoms: _55  and  _58
REMARK   23  A    between atoms: _61  and  _63
REMARK   24  A    between atoms: _63  and  _64
REMARK   25  A    between atoms: _63  and  _66
REMARK   26  A    between atoms: _66  and  _67
REMARK   27  A    between atoms: _70  and  _72
REMARK   28  A    between atoms: _72  and  _73
REMARK   29  A    between atoms: _72  and  _75
REMARK   30  A    between atoms: _75  and  _76
REMARK   31  A    between atoms: _81  and  _82
REMARK   32  A    between atoms: _84  and  _86
REMARK   33  A    between atoms: _86  and  _87
REMARK   34  A    between atoms: _86  and  _89
REMARK   35  A    between atoms: _89  and  _90
REMARK   36  A    between atoms: _90  and  _91
REMARK   37  A    between atoms: _93  and  _95
REMARK   38  A    between atoms: _95  and  _96
REMARK   39  A    between atoms: _95  and  _98
REMARK   40  A    between atoms: _98  and  _99
REMARK   41  A    between atoms: _99  and  _100
REMARK   42  A    between atoms: _103  and  _105
REMARK   43  A    between atoms: _105  and  _106
REMARK   44  A    between atoms: _105  and  _108
REMARK   45  A    between atoms: _111  and  _113
REMARK   46  A    between atoms: _113  and  _114
REMARK   47  A    between atoms: _116  and  _118
REMARK   48  A    between atoms: _118  and  _119
REMARK   49  A    between atoms: _118  and  _121
REMARK   50  A    between atoms: _124  and  _126
REMARK   51  A    between atoms: _126  and  _127
REMARK   52  A    between atoms: _126  and  _129
REMARK   53  A    between atoms: _129  and  _130
REMARK   54  A    between atoms: _136  and  _138
REMARK   55  A    between atoms: _138  and  _139
REMARK   56  A    between atoms: _138  and  _141
REMARK   57  A    between atoms: _144  and  _146
REMARK   58  A    between atoms: _146  and  _147
REMARK   59  A    between atoms: _146  and  _149
REMARK   60  A    between atoms: _149  and  _150
REMARK   61  A    between atoms: _156  and  _158
REMARK   62  A    between atoms: _158  and  _159
REMARK   63  A    between atoms: _158  and  _161
REMARK   64  A    between atoms: _161  and  _162
REMARK   65  A    between atoms: _167  and  _168
REMARK   66  A    between atoms: _170  and  _172
REMARK   67  A    between atoms: _172  and  _173
REMARK   68  A    between atoms: _172  and  _175
REMARK   69  A    between atoms: _175  and  _176
REMARK   70  A    between atoms: _176  and  _177
REMARK   71  A    between atoms: _179  and  _181
REMARK   72  A    between atoms: _181  and  _182
REMARK   73  A    between atoms: _181  and  _184
REMARK   74  A    between atoms: _184  and  _185
REMARK   75  A    between atoms: _190  and  _191
REMARK   76  A    between atoms: _193  and  _195
REMARK   77  A    between atoms: _195  and  _196
REMARK   78  A    between atoms: _195  and  _198
REMARK   79  A    between atoms: _198  and  _199
REMARK   80  A    between atoms: _199  and  _200
REMARK   81  A    between atoms: _200  and  _201
REMARK   82  A    between atoms: _210  and  _212
REMARK   83  A    between atoms: _212  and  _213
REMARK   84  A    between atoms: _212  and  _215
REMARK   85  A    between atoms: _215  and  _216
REMARK   86  A    between atoms: _216  and  _217
REMARK   87  A    between atoms: _220  and  _222
REMARK   88  A    between atoms: _222  and  _223
REMARK   89  A    between atoms: _222  and  _225
REMARK   90  A    between atoms: _225  and  _226
REMARK   91  A    between atoms: _226  and  _227
REMARK   92  A    between atoms: _232  and  _234
REMARK   93  A    between atoms: _234  and  _235
REMARK   94  A    between atoms: _234  and  _237
REMARK   95  A    between atoms: _237  and  _238
REMARK   96  A    between atoms: _238  and  _239
REMARK   97  A    between atoms: _239  and  _240
REMARK   98  A    between atoms: _240  and  _241
REMARK   99  A    between atoms: _245  and  _247
REMARK  100  A    between atoms: _247  and  _248
REMARK  101  A    between atoms: _251  and  _253
REMARK  102  A    between atoms: _253  and  _254
REMARK  103  A    between atoms: _256  and  _258
REMARK  104  A    between atoms: _258  and  _259
REMARK  105  A    between atoms: _258  and  _261
REMARK  106  A    between atoms: _261  and  _262
REMARK  107  A    between atoms: _267  and  _269
REMARK  108  A    between atoms: _269  and  _270
REMARK  109  A    between atoms: _269  and  _272
REMARK  110  A    between atoms: _272  and  _273
REMARK  111  A    between atoms: _273  and  _274
REMARK  112  A    between atoms: _277  and  _279
REMARK  113  A    between atoms: _279  and  _280
REMARK  114  A    between atoms: _279  and  _282
REMARK  115  A    between atoms: _282  and  _283
REMARK  116  A    between atoms: _283  and  _284
REMARK  117  A    between atoms: _289  and  _291
REMARK  118  A    between atoms: _291  and  _292
REMARK  119  A    between atoms: _291  and  _294
REMARK  120  A    between atoms: _294  and  _295
REMARK  121  A    between atoms: _297  and  _299
REMARK  122  A    between atoms: _299  and  _300
REMARK  123  A    between atoms: _299  and  _302
REMARK  124  A    between atoms: _302  and  _303
REMARK  125  A    between atoms: _309  and  _311
REMARK  126  A    between atoms: _311  and  _312
REMARK  127  A    between atoms: _311  and  _314
REMARK  128  A    between atoms: _314  and  _315
REMARK  129  A    between atoms: _315  and  _316
REMARK  130  A    between atoms: _316  and  _317
REMARK  131  A    between atoms: _326  and  _328
REMARK  132  A    between atoms: _328  and  _329
REMARK  133  A    between atoms: _328  and  _331
REMARK  134  A    between atoms: _334  and  _336
REMARK  135  A    between atoms: _336  and  _337
REMARK  136  A    between atoms: _336  and  _339
REMARK  137  A    between atoms: _339  and  _340
REMARK  138  A    between atoms: _343  and  _345
REMARK  139  A    between atoms: _345  and  _346
REMARK  140  A    between atoms: _345  and  _348
REMARK  141  A    between atoms: _348  and  _349
REMARK  142  A    between atoms: _352  and  _354
REMARK  143  A    between atoms: _354  and  _355
REMARK  144  A    between atoms: _354  and  _357
REMARK  145  A    between atoms: _357  and  _358
REMARK  146  A    between atoms: _358  and  _359
REMARK  147  A    between atoms: _359  and  _360
REMARK  148  A    between atoms: _369  and  _371
REMARK  149  A    between atoms: _371  and  _372
REMARK  150  A    between atoms: _371  and  _374
REMARK  151  A    between atoms: _374  and  _375
REMARK  152  A    between atoms: _378  and  _380
REMARK  153  A    between atoms: _380  and  _381
REMARK  154  A    between atoms: _380  and  _383
REMARK  155  A    between atoms: _383  and  _384
REMARK  156  A    between atoms: _387  and  _389
REMARK  157  A    between atoms: _389  and  _390
REMARK  158  A    between atoms: _389  and  _392
REMARK  159  A    between atoms: _392  and  _393
REMARK  160  A    between atoms: _398  and  _399
REMARK  161  A    between atoms: _401  and  _403
REMARK  162  A    between atoms: _403  and  _404
REMARK  163  A    between atoms: _403  and  _406
REMARK  164  A    between atoms: _406  and  _407
REMARK  165  A    between atoms: _412  and  _413
REMARK  166  A    between atoms: _415  and  _417
REMARK  167  A    between atoms: _417  and  _418
REMARK  168  A    between atoms: _417  and  _420
REMARK  169  A    between atoms: _420  and  _421
REMARK  170  A    between atoms: _424  and  _426
REMARK  171  A    between atoms: _426  and  _427
REMARK  172  A    between atoms: _426  and  _429
REMARK  173  A    between atoms: _429  and  _430
REMARK  174  A    between atoms: _430  and  _431
REMARK  175  A    between atoms: _436  and  _438
REMARK  176  A    between atoms: _438  and  _439
REMARK  177  A    between atoms: _438  and  _441
REMARK  178  A    between atoms: _444  and  _446
REMARK  179  A    between atoms: _446  and  _447
REMARK  180  A    between atoms: _446  and  _449
REMARK  181  A    between atoms: _449  and  _450
REMARK  182  A    between atoms: _453  and  _455
REMARK  183  A    between atoms: _455  and  _456
REMARK  184  A    between atoms: _455  and  _458
REMARK  185  A    between atoms: _458  and  _459
REMARK  186  A    between atoms: _461  and  _463
REMARK  187  A    between atoms: _463  and  _464
REMARK  188  A    between atoms: _466  and  _468
REMARK  189  A    between atoms: _468  and  _469
REMARK  190  A    between atoms: _468  and  _471
REMARK  191  A    between atoms: _471  and  _472
REMARK  192  A    between atoms: _472  and  _774
REMARK  193  A    between atoms: _473  and  _475
REMARK  194  A    between atoms: _475  and  _476
REMARK  195  A    between atoms: _475  and  _478
REMARK  196  A    between atoms: _478  and  _479
REMARK  197  A    between atoms: _484  and  _485
REMARK  198  A    between atoms: _487  and  _489
REMARK  199  A    between atoms: _489  and  _490
REMARK  200  A    between atoms: _489  and  _492
REMARK  201  A    between atoms: _492  and  _493
REMARK  202  A    between atoms: _493  and  _494
REMARK  203  A    between atoms: _499  and  _501
REMARK  204  A    between atoms: _501  and  _502
REMARK  205  A    between atoms: _501  and  _504
REMARK  206  A    between atoms: _504  and  _505
REMARK  207  A    between atoms: _505  and  _506
REMARK  208  A    between atoms: _511  and  _513
REMARK  209  A    between atoms: _513  and  _514
REMARK  210  A    between atoms: _513  and  _516
REMARK  211  A    between atoms: _516  and  _517
REMARK  212  A    between atoms: _522  and  _523
REMARK  213  A    between atoms: _525  and  _527
REMARK  214  A    between atoms: _527  and  _528
REMARK  215  A    between atoms: _531  and  _533
REMARK  216  A    between atoms: _533  and  _534
REMARK  217  A    between atoms: _533  and  _536
REMARK  218  A    between atoms: _536  and  _537
REMARK  219  A    between atoms: _542  and  _543
REMARK  220  A    between atoms: _545  and  _547
REMARK  221  A    between atoms: _547  and  _548
REMARK  222  A    between atoms: _547  and  _550
REMARK  223  A    between atoms: _550  and  _551
REMARK  224  A    between atoms: _556  and  _557
REMARK  225  A    between atoms: _559  and  _561
REMARK  226  A    between atoms: _561  and  _562
REMARK  227  A    between atoms: _561  and  _564
REMARK  228  A    between atoms: _564  and  _565
REMARK  229  A    between atoms: _568  and  _570
REMARK  230  A    between atoms: _570  and  _571
REMARK  231  A    between atoms: _574  and  _576
REMARK  232  A    between atoms: _576  and  _577
REMARK  233  A    between atoms: _580  and  _582
REMARK  234  A    between atoms: _582  and  _583
REMARK  235  A    between atoms: _582  and  _585
REMARK  236  A    between atoms: _585  and  _586
REMARK  237  A    between atoms: _589  and  _591
REMARK  238  A    between atoms: _591  and  _592
REMARK  239  A    between atoms: _591  and  _594
REMARK  240  A    between atoms: _594  and  _595
REMARK  241  A    between atoms: _598  and  _600
REMARK  242  A    between atoms: _600  and  _601
REMARK  243  A    between atoms: _600  and  _603
REMARK  244  A    between atoms: _603  and  _604
REMARK  245  A    between atoms: _607  and  _609
REMARK  246  A    between atoms: _609  and  _610
REMARK  247  A    between atoms: _609  and  _612
REMARK  248  A    between atoms: _612  and  _613
REMARK  249  A    between atoms: _613  and  _614
REMARK  250  A    between atoms: _614  and  _615
REMARK  251  A    between atoms: _615  and  _616
REMARK  252  A    between atoms: _620  and  _622
REMARK  253  A    between atoms: _622  and  _623
REMARK  254  A    between atoms: _622  and  _625
REMARK  255  A    between atoms: _625  and  _626
REMARK  256  A    between atoms: _631  and  _633
REMARK  257  A    between atoms: _633  and  _634
REMARK  258  A    between atoms: _633  and  _636
REMARK  259  A    between atoms: _636  and  _637
REMARK  260  A    between atoms: _637  and  _638
REMARK  261  A    between atoms: _638  and  _639
REMARK  262  A    between atoms: _639  and  _640
REMARK  263  A    between atoms: _644  and  _646
REMARK  264  A    between atoms: _646  and  _647
REMARK  265  A    between atoms: _646  and  _649
REMARK  266  A    between atoms: _649  and  _650
REMARK  267  A    between atoms: _660  and  _662
REMARK  268  A    between atoms: _662  and  _663
REMARK  269  A    between atoms: _666  and  _668
REMARK  270  A    between atoms: _668  and  _669
REMARK  271  A    between atoms: _671  and  _673
REMARK  272  A    between atoms: _673  and  _674
REMARK  273  A    between atoms: _673  and  _676
REMARK  274  A    between atoms: _676  and  _677
REMARK  275  A    between atoms: _677  and  _678
REMARK  276  A    between atoms: _681  and  _683
REMARK  277  A    between atoms: _683  and  _684
REMARK  278  A    between atoms: _687  and  _689
REMARK  279  A    between atoms: _689  and  _690
REMARK  280  A    between atoms: _689  and  _692
REMARK  281  A    between atoms: _692  and  _693
REMARK  282  A    between atoms: _693  and  _694
REMARK  283  A    between atoms: _694  and  _695
REMARK  284  A    between atoms: _704  and  _706
REMARK  285  A    between atoms: _706  and  _707
REMARK  286  A    between atoms: _706  and  _709
REMARK  287  A    between atoms: _709  and  _710
REMARK  288  A    between atoms: _713  and  _715
REMARK  289  A    between atoms: _715  and  _716
REMARK  290  A    between atoms: _715  and  _718
REMARK  291  A    between atoms: _718  and  _719
REMARK  292  A    between atoms: _719  and  _720
REMARK  293  A    between atoms: _720  and  _721
REMARK  294  A    between atoms: _730  and  _732
REMARK  295  A    between atoms: _732  and  _733
REMARK  296  A    between atoms: _736  and  _738
REMARK  297  A    between atoms: _738  and  _739
REMARK  298  A    between atoms: _738  and  _741
REMARK  299  A    between atoms: _741  and  _742
REMARK  300  A    between atoms: _747  and  _748
REMARK  301  A    between atoms: _750  and  _752
REMARK  302  A    between atoms: _752  and  _753
REMARK  303  A    between atoms: _752  and  _755
REMARK  304  A    between atoms: _755  and  _756
REMARK  305  A    between atoms: _759  and  _761
REMARK  306  A    between atoms: _761  and  _762
REMARK  307  A    between atoms: _761  and  _764
REMARK  308  A    between atoms: _764  and  _765
REMARK  309  A    between atoms: _768  and  _770
REMARK  310  A    between atoms: _770  and  _771
REMARK  311  A    between atoms: _770  and  _773
REMARK  312  A    between atoms: _773  and  _774
REMARK  313  A    between atoms: _775  and  _777
REMARK  314  A    between atoms: _777  and  _778
REMARK  315  A    between atoms: _777  and  _780
REMARK  316  A    between atoms: _783  and  _785
REMARK  317  A    between atoms: _785  and  _786
REMARK  318  A    between atoms: _785  and  _788
REMARK  319  A    between atoms: _788  and  _789
REMARK  320  A    between atoms: _789  and  _790
REMARK  321  A    between atoms: _793  and  _795
REMARK  322  A    between atoms: _795  and  _796
REMARK  323  A    between atoms: _795  and  _798
REMARK  324  A    between atoms: _798  and  _799
REMARK  325  A    between atoms: _809  and  _811
REMARK  326  A    between atoms: _811  and  _812
REMARK  327  A    between atoms: _811  and  _814
REMARK  328  A    between atoms: _814  and  _815
REMARK  329  A    between atoms: _818  and  _820
REMARK  330  A    between atoms: _820  and  _821
REMARK  331  A    between atoms: _820  and  _823
REMARK  332  A    between atoms: _823  and  _824
REMARK  333  A    between atoms: _829  and  _830
REMARK                            x       y       z     vdW  Elec       q    Type
REMARK                         _______ _______ _______ _____ _____    ______ ____
ROOT
ATOM      1  CA  VAL A   1      -2.979  -5.604  31.999  0.00  0.00    +0.133 C 
ENDROOT
BRANCH   1   2
ATOM      2  CB  VAL A   1      -3.627  -6.897  32.532  0.00  0.00    +0.023 C 
ATOM      3  CG2 VAL A   1      -2.882  -7.398  33.765  0.00  0.00    +0.002 C 
ATOM      4  CG1 VAL A   1      -5.115  -6.664  32.854  0.00  0.00    +0.002 C 
ENDBRANCH   1   2
BRANCH   1   5
ATOM      5  N   VAL A   1      -3.475  -5.218  30.686  0.00  0.00    -0.239 NA
ATOM      6  H   VAL A   1      -3.629  -5.944  29.957  0.00  0.00    +0.142 HD
ENDBRANCH   1   5
BRANCH   1   7
ATOM      7  C   VAL A   1      -1.460  -5.737  31.885  0.00  0.00    +0.224 C 
ATOM      8  O   VAL A   1      -0.945  -6.569  31.126  0.00  0.00    -0.287 OA
ENDBRANCH   1   7
TORSDOF 3
REMARK  Name = ../refined-set-2016/3p9l/3p9l_pocket.pdb
REMARK  333 active torsions:
REMARK  status: ('A' for Active; 'I' for Inactive)
REMARK    1  A    between atoms: _1  and  _3
REMARK    2  A    between atoms: _3  and  _4
REMARK    3  A    between atoms: _3  and  _6
REMARK    4  A    between atoms: _6  and  _7
REMARK    5  A    between atoms: _10  and  _12
REMARK    6  A    between atoms: _12  and  _13
REMARK    7  A    between atoms: _12  and  _15
REMARK    8  A    between atoms: _15  and  _16
REMARK    9  A    between atoms: _16  and  _17
REMARK   10  A    between atoms: _17  and  _18
REMARK   11  A    between atoms: _27  and  _29
REMARK   12  A    between atoms: _29  and  _30
REMARK   13  A    between atoms: _29  and  _32
REMARK   14  A    between atoms: _32  and  _33
REMARK   15  A    between atoms: _38  and  _39
REMARK   16  A    between atoms: _41  and  _43
REMARK   17  A    between atoms: _43  and  _44
REMARK   18  A    between atoms: _43  and  _46
REMARK   19  A    between atoms: _46  and  _47
REMARK   20  A    between atoms: _53  and  _55
REMARK   21  A    between atoms: _55  and  _56
REMARK   22  A    between atoms: _55  and  _58
REMARK   23  A    between atoms: _61  and  _63
REMARK   24  A    between atoms: _63  and  _64
REMARK   25  A    between atoms: _63  and  _66
REMARK   26  A    between atoms: _66  and  _67
REMARK   27  A    between atoms: _70  and  _72
REMARK   28  A    between atoms: _72  and  _73
REMARK   29  A    between atoms: _72  and  _75
REMARK   30  A    between atoms: _75  and  _76
REMARK   31  A    between atoms: _81  and  _82
REMARK   32  A    between atoms: _84  and  _86
REMARK   33  A    between atoms: _86  and  _87
REMARK   34  A    between atoms: _86  and  _89
REMARK   35  A    between atoms: _89  and  _90
REMARK   36  A    between atoms: _90  and  _91
REMARK   37  A    between atoms: _93  and  _95
REMARK   38  A    between atoms: _95  and  _96
REMARK   39  A    between atoms: _95  and  _98
REMARK   40  A    between atoms: _98  and  _99
REMARK   41  A    between atoms: _99  and  _100
REMARK   42  A    between atoms: _103  and  _105
REMARK   43  A    between atoms: _105  and  _106
REMARK   44  A    between atoms: _105  and  _108
REMARK   45  A    between atoms: _111  and  _113
REMARK   46  A    between atoms: _113  and  _114
REMARK   47  A    between atoms: _116  and  _118
REMARK   48  A    between atoms: _118  and  _119
REMARK   49  A    between atoms: _118  and  _121
REMARK   50  A    between atoms: _124  and  _126
REMARK   51  A    between atoms: _126  and  _127
REMARK   52  A    between atoms: _126  and  _129
REMARK   53  A    between atoms: _129  and  _130
REMARK   54  A    between atoms: _136  and  _138
REMARK   55  A    between atoms: _138  and  _139
REMARK   56  A    between atoms: _138  and  _141
REMARK   57  A    between atoms: _144  and  _146
REMARK   58  A    between atoms: _146  and  _147
REMARK   59  A    between atoms: _146  and  _149
REMARK   60  A    between atoms: _149  and  _150
REMARK   61  A    between atoms: _156  and  _158
REMARK   62  A    between atoms: _158  and  _159
REMARK   63  A    between atoms: _158  and  _161
REMARK   64  A    between atoms: _161  and  _162
REMARK   65  A    between atoms: _167  and  _168
REMARK   66  A    between atoms: _170  and  _172
REMARK   67  A    between atoms: _172  and  _173
REMARK   68  A    between atoms: _172  and  _175
REMARK   69  A    between atoms: _175  and  _176
REMARK   70  A    between atoms: _176  and  _177
REMARK   71  A    between atoms: _179  and  _181
REMARK   72  A    between atoms: _181  and  _182
REMARK   73  A    between atoms: _181  and  _184
REMARK   74  A    between atoms: _184  and  _185
REMARK   75  A    between atoms: _190  and  _191
REMARK   76  A    between atoms: _193  and  _195
REMARK   77  A    between atoms: _195  and  _196
REMARK   78  A    between atoms: _195  and  _198
REMARK   79  A    between atoms: _198  and  _199
REMARK   80  A    between atoms: _199  and  _200
REMARK   81  A    between atoms: _200  and  _201
REMARK   82  A    between atoms: _210  and  _212
REMARK   83  A    between atoms: _212  and  _213
REMARK   84  A    between atoms: _212  and  _215
REMARK   85  A    between atoms: _215  and  _216
REMARK   86  A    between atoms: _216  and  _217
REMARK   87  A    between atoms: _220  and  _222
REMARK   88  A    between atoms: _222  and  _223
REMARK   89  A    between atoms: _222  and  _225
REMARK   90  A    between atoms: _225  and  _226
REMARK   91  A    between atoms: _226  and  _227
REMARK   92  A    between atoms: _232  and  _234
REMARK   93  A    between atoms: _234  and  _235
REMARK   94  A    between atoms: _234  and  _237
REMARK   95  A    between atoms: _237  and  _238
REMARK   96  A    between atoms: _238  and  _239
REMARK   97  A    between atoms: _239  and  _240
REMARK   98  A    between atoms: _240  and  _241
REMARK   99  A    between atoms: _245  and  _247
REMARK  100  A    between atoms: _247  and  _248
REMARK  101  A    between atoms: _251  and  _253
REMARK  102  A    between atoms: _253  and  _254
REMARK  103  A    between atoms: _256  and  _258
REMARK  104  A    between atoms: _258  and  _259
REMARK  105  A    between atoms: _258  and  _261
REMARK  106  A    between atoms: _261  and  _262
REMARK  107  A    between atoms: _267  and  _269
REMARK  108  A    between atoms: _269  and  _270
REMARK  109  A    between atoms: _269  and  _272
REMARK  110  A    between atoms: _272  and  _273
REMARK  111  A    between atoms: _273  and  _274
REMARK  112  A    between atoms: _277  and  _279
REMARK  113  A    between atoms: _279  and  _280
REMARK  114  A    between atoms: _279  and  _282
REMARK  115  A    between atoms: _282  and  _283
REMARK  116  A    between atoms: _283  and  _284
REMARK  117  A    between atoms: _289  and  _291
REMARK  118  A    between atoms: _291  and  _292
REMARK  119  A    between atoms: _291  and  _294
REMARK  120  A    between atoms: _294  and  _295
REMARK  121  A    between atoms: _297  and  _299
REMARK  122  A    between atoms: _299  and  _300
REMARK  123  A    between atoms: _299  and  _302
REMARK  124  A    between atoms: _302  and  _303
REMARK  125  A    between atoms: _309  and  _311
REMARK  126  A    between atoms: _311  and  _312
REMARK  127  A    between atoms: _311  and  _314
REMARK  128  A    between atoms: _314  and  _315
REMARK  129  A    between atoms: _315  and  _316
REMARK  130  A    between atoms: _316  and  _317
REMARK  131  A    between atoms: _326  and  _328
REMARK  132  A    between atoms: _328  and  _329
REMARK  133  A    between atoms: _328  and  _331
REMARK  134  A    between atoms: _334  and  _336
REMARK  135  A    between atoms: _336  and  _337
REMARK  136  A    between atoms: _336  and  _339
REMARK  137  A    between atoms: _339  and  _340
REMARK  138  A    between atoms: _343  and  _345
REMARK  139  A    between atoms: _345  and  _346
REMARK  140  A    between atoms: _345  and  _348
REMARK  141  A    between atoms: _348  and  _349
REMARK  142  A    between atoms: _352  and  _354
REMARK  143  A    between atoms: _354  and  _355
REMARK  144  A    between atoms: _354  and  _357
REMARK  145  A    between atoms: _357  and  _358
REMARK  146  A    between atoms: _358  and  _359
REMARK  147  A    between atoms: _359  and  _360
REMARK  148  A    between atoms: _369  and  _371
REMARK  149  A    between atoms: _371  and  _372
REMARK  150  A    between atoms: _371  and  _374
REMARK  151  A    between atoms: _374  and  _375
REMARK  152  A    between atoms: _378  and  _380
REMARK  153  A    between atoms: _380  and  _381
REMARK  154  A    between atoms: _380  and  _383
REMARK  155  A    between atoms: _383  and  _384
REMARK  156  A    between atoms: _387  and  _389
REMARK  157  A    between atoms: _389  and  _390
REMARK  158  A    between atoms: _389  and  _392
REMARK  159  A    between atoms: _392  and  _393
REMARK  160  A    between atoms: _398  and  _399
REMARK  161  A    between atoms: _401  and  _403
REMARK  162  A    between atoms: _403  and  _404
REMARK  163  A    between atoms: _403  and  _406
REMARK  164  A    between atoms: _406  and  _407
REMARK  165  A    between atoms: _412  and  _413
REMARK  166  A    between atoms: _415  and  _417
REMARK  167  A    between atoms: _417  and  _418
REMARK  168  A    between atoms: _417  and  _420
REMARK  169  A    between atoms: _420  and  _421
REMARK  170  A    between atoms: _424  and  _426
REMARK  171  A    between atoms: _426  and  _427
REMARK  172  A    between atoms: _426  and  _429
REMARK  173  A    between atoms: _429  and  _430
REMARK  174  A    between atoms: _430  and  _431
REMARK  175  A    between atoms: _436  and  _438
REMARK  176  A    between atoms: _438  and  _439
REMARK  177  A    between atoms: _438  and  _441
REMARK  178  A    between atoms: _444  and  _446
REMARK  179  A    between atoms: _446  and  _447
REMARK  180  A    between atoms: _446  and  _449
REMARK  181  A    between atoms: _449  and  _450
REMARK  182  A    between atoms: _453  and  _455
REMARK  183  A    between atoms: _455  and  _456
REMARK  184  A    between atoms: _455  and  _458
REMARK  185  A    between atoms: _458  and  _459
REMARK  186  A    between atoms: _461  and  _463
REMARK  187  A    between atoms: _463  and  _464
REMARK  188  A    between atoms: _466  and  _468
REMARK  189  A    between atoms: _468  and  _469
REMARK  190  A    between atoms: _468  and  _471
REMARK  191  A    between atoms: _471  and  _472
REMARK  192  A    between atoms: _472  and  _774
REMARK  193  A    between atoms: _473  and  _475
REMARK  194  A    between atoms: _475  and  _476
REMARK  195  A    between atoms: _475  and  _478
REMARK  196  A    between atoms: _478  and  _479
REMARK  197  A    between atoms: _484  and  _485
REMARK  198  A    between atoms: _487  and  _489
REMARK  199  A    between atoms: _489  and  _490
REMARK  200  A    between atoms: _489  and  _492
REMARK  201  A    between atoms: _492  and  _493
REMARK  202  A    between atoms: _493  and  _494
REMARK  203  A    between atoms: _499  and  _501
REMARK  204  A    between atoms: _501  and  _502
REMARK  205  A    between atoms: _501  and  _504
REMARK  206  A    between atoms: _504  and  _505
REMARK  207  A    between atoms: _505  and  _506
REMARK  208  A    between atoms: _511  and  _513
REMARK  209  A    between atoms: _513  and  _514
REMARK  210  A    between atoms: _513  and  _516
REMARK  211  A    between atoms: _516  and  _517
REMARK  212  A    between atoms: _522  and  _523
REMARK  213  A    between atoms: _525  and  _527
REMARK  214  A    between atoms: _527  and  _528
REMARK  215  A    between atoms: _531  and  _533
REMARK  216  A    between atoms: _533  and  _534
REMARK  217  A    between atoms: _533  and  _536
REMARK  218  A    between atoms: _536  and  _537
REMARK  219  A    between atoms: _542  and  _543
REMARK  220  A    between atoms: _545  and  _547
REMARK  221  A    between atoms: _547  and  _548
REMARK  222  A    between atoms: _547  and  _550
REMARK  223  A    between atoms: _550  and  _551
REMARK  224  A    between atoms: _556  and  _557
REMARK  225  A    between atoms: _559  and  _561
REMARK  226  A    between atoms: _561  and  _562
REMARK  227  A    between atoms: _561  and  _564
REMARK  228  A    between atoms: _564  and  _565
REMARK  229  A    between atoms: _568  and  _570
REMARK  230  A    between atoms: _570  and  _571
REMARK  231  A    between atoms: _574  and  _576
REMARK  232  A    between atoms: _576  and  _577
REMARK  233  A    between atoms: _580  and  _582
REMARK  234  A    between atoms: _582  and  _583
REMARK  235  A    between atoms: _582  and  _585
REMARK  236  A    between atoms: _585  and  _586
REMARK  237  A    between atoms: _589  and  _591
REMARK  238  A    between atoms: _591  and  _592
REMARK  239  A    between atoms: _591  and  _594
REMARK  240  A    between atoms: _594  and  _595
REMARK  241  A    between atoms: _598  and  _600
REMARK  242  A    between atoms: _600  and  _601
REMARK  243  A    between atoms: _600  and  _603
REMARK  244  A    between atoms: _603  and  _604
REMARK  245  A    between atoms: _607  and  _609
REMARK  246  A    between atoms: _609  and  _610
REMARK  247  A    between atoms: _609  and  _612
REMARK  248  A    between atoms: _612  and  _613
REMARK  249  A    between atoms: _613  and  _614
REMARK  250  A    between atoms: _614  and  _615
REMARK  251  A    between atoms: _615  and  _616
REMARK  252  A    between atoms: _620  and  _622
REMARK  253  A    between atoms: _622  and  _623
REMARK  254  A    between atoms: _622  and  _625
REMARK  255  A    between atoms: _625  and  _626
REMARK  256  A    between atoms: _631  and  _633
REMARK  257  A    between atoms: _633  and  _634
REMARK  258  A    between atoms: _633  and  _636
REMARK  259  A    between atoms: _636  and  _637
REMARK  260  A    between atoms: _637  and  _638
REMARK  261  A    between atoms: _638  and  _639
REMARK  262  A    between atoms: _639  and  _640
REMARK  263  A    between atoms: _644  and  _646
REMARK  264  A    between atoms: _646  and  _647
REMARK  265  A    between atoms: _646  and  _649
REMARK  266  A    between atoms: _649  and  _650
REMARK  267  A    between atoms: _660  and  _662
REMARK  268  A    between atoms: _662  and  _663
REMARK  269  A    between atoms: _666  and  _668
REMARK  270  A    between atoms: _668  and  _669
REMARK  271  A    between atoms: _671  and  _673
REMARK  272  A    between atoms: _673  and  _674
REMARK  273  A    between atoms: _673  and  _676
REMARK  274  A    between atoms: _676  and  _677
REMARK  275  A    between atoms: _677  and  _678
REMARK  276  A    between atoms: _681  and  _683
REMARK  277  A    between atoms: _683  and  _684
REMARK  278  A    between atoms: _687  and  _689
REMARK  279  A    between atoms: _689  and  _690
REMARK  280  A    between atoms: _689  and  _692
REMARK  281  A    between atoms: _692  and  _693
REMARK  282  A    between atoms: _693  and  _694
REMARK  283  A    between atoms: _694  and  _695
REMARK  284  A    between atoms: _704  and  _706
REMARK  285  A    between atoms: _706  and  _707
REMARK  286  A    between atoms: _706  and  _709
REMARK  287  A    between atoms: _709  and  _710
REMARK  288  A    between atoms: _713  and  _715
REMARK  289  A    between atoms: _715  and  _716
REMARK  290  A    between atoms: _715  and  _718
REMARK  291  A    between atoms: _718  and  _719
REMARK  292  A    between atoms: _719  and  _720
REMARK  293  A    between atoms: _720  and  _721
REMARK  294  A    between atoms: _730  and  _732
REMARK  295  A    between atoms: _732  and  _733
REMARK  296  A    between atoms: _736  and  _738
REMARK  297  A    between atoms: _738  and  _739
REMARK  298  A    between atoms: _738  and  _741
REMARK  299  A    between atoms: _741  and  _742
REMARK  300  A    between atoms: _747  and  _748
REMARK  301  A    between atoms: _750  and  _752
REMARK  302  A    between atoms: _752  and  _753
REMARK  303  A    between atoms: _752  and  _755
REMARK  304  A    between atoms: _755  and  _756
REMARK  305  A    between atoms: _759  and  _761
REMARK  306  A    between atoms: _761  and  _762
REMARK  307  A    between atoms: _761  and  _764
REMARK  308  A    between atoms: _764  and  _765
REMARK  309  A    between atoms: _768  and  _770
REMARK  310  A    between atoms: _770  and  _771
REMARK  311  A    between atoms: _770  and  _773
REMARK  312  A    between atoms: _773  and  _774
REMARK  313  A    between atoms: _775  and  _777
REMARK  314  A    between atoms: _777  and  _778
REMARK  315  A    between atoms: _777  and  _780
REMARK  316  A    between atoms: _783  and  _785
REMARK  317  A    between atoms: _785  and  _786
REMARK  318  A    between atoms: _785  and  _788
REMARK  319  A    between atoms: _788  and  _789
REMARK  320  A    between atoms: _789  and  _790
REMARK  321  A    between atoms: _793  and  _795
REMARK  322  A    between atoms: _795  and  _796
REMARK  323  A    between atoms: _795  and  _798
REMARK  324  A    between atoms: _798  and  _799
REMARK  325  A    between atoms: _809  and  _811
REMARK  326  A    between atoms: _811  and  _812
REMARK  327  A    between atoms: _811  and  _814
REMARK  328  A    between atoms: _814  and  _815
REMARK  329  A    between atoms: _818  and  _820
REMARK  330  A    between atoms: _820  and  _821
REMARK  331  A    between atoms: _820  and  _823
REMARK  332  A    between atoms: _823  and  _824
REMARK  333  A    between atoms: _829  and  _830
REMARK                            x       y       z     vdW  Elec       q    Type
REMARK                         _______ _______ _______ _____ _____    ______ ____
ROOT
ATOM      1  CA  PHE A   1      -6.268  -8.342  27.168  0.00  0.00    +0.149 C 
ENDROOT
BRANCH   1   2
ATOM      2  C   PHE A   1      -7.750  -8.258  26.787  0.00  0.00    +0.239 C 
ATOM      3  O   PHE A   1      -8.464  -9.268  26.813  0.00  0.00    -0.274 OA
ATOM      4  N   VAL A   2      -8.211  -7.062  26.428  0.00  0.00    -0.298 N 
ATOM      5  H   VAL A   2      -7.573  -6.241  26.468  0.00  0.00    +0.150 HD
BRANCH   4   6
ATOM      6  CA  VAL A   2      -9.595  -6.869  25.977  0.00  0.00    +0.137 C 
BRANCH   6   7
ATOM      7  CB  VAL A   2     -10.522  -6.466  27.131  0.00  0.00    +0.026 C 
ATOM      8  CG2 VAL A   2     -10.693  -7.616  28.113  0.00  0.00    +0.002 C 
ATOM      9  CG1 VAL A   2      -9.968  -5.223  27.828  0.00  0.00    +0.002 C 
ENDBRANCH   6   7
BRANCH   6  10
ATOM     10  C   VAL A   2      -9.664  -5.759  24.941  0.00  0.00    +0.227 C 
ATOM     11  O   VAL A   2      -8.780  -4.906  24.867  0.00  0.00    -0.286 OA
ENDBRANCH   6  10
ENDBRANCH   4   6
ENDBRANCH   1   2
BRANCH   1  12
ATOM     12  N   PHE A   1      -5.480  -7.182  26.742  0.00  0.00    -0.238 NA
ATOM     13  H   PHE A   1      -5.776  -6.225  27.023  0.00  0.00    +0.142 HD
ENDBRANCH   1  12
BRANCH   1  14
ATOM     14  CB  PHE A   1      -6.106  -8.591  28.673  0.00  0.00    +0.053 C 
BRANCH  14  15
ATOM     15  CG  PHE A   1      -6.824  -7.593  29.531  0.00  0.00    -0.020 A 
ATOM     16  CD2 PHE A   1      -7.919  -7.972  30.290  0.00  0.00    -0.004 A 
ATOM     17  CE2 PHE A   1      -8.589  -7.052  31.079  0.00  0.00    -0.000 A 
ATOM     18  CZ  PHE A   1      -8.162  -5.733  31.110  0.00  0.00    -0.000 A 
ATOM     19  CE1 PHE A   1      -7.072  -5.345  30.362  0.00  0.00    -0.000 A 
ATOM     20  CD1 PHE A   1      -6.407  -6.272  29.575  0.00  0.00    -0.004 A 
ENDBRANCH  14  15
ENDBRANCH   1  14
TORSDOF 7
REMARK  Name = ../refined-set-2016/3p9l/3p9l_pocket.pdb
REMARK  333 active torsions:
REMARK  status: ('A' for Active; 'I' for Inactive)
REMARK    1  A    between atoms: _1  and  _3
REMARK    2  A    between atoms: _3  and  _4
REMARK    3  A    between atoms: _3  and  _6
REMARK    4  A    between atoms: _6  and  _7
REMARK    5  A    between atoms: _10  and  _12
REMARK    6  A    between atoms: _12  and  _13
REMARK    7  A    between atoms: _12  and  _15
REMARK    8  A    between atoms: _15  and  _16
REMARK    9  A    between atoms: _16  and  _17
REMARK   10  A    between atoms: _17  and  _18
REMARK   11  A    between atoms: _27  and  _29
REMARK   12  A    between atoms: _29  and  _30
REMARK   13  A    between atoms: _29  and  _32
REMARK   14  A    between atoms: _32  and  _33
REMARK   15  A    between atoms: _38  and  _39
REMARK   16  A    between atoms: _41  and  _43
REMARK   17  A    between atoms: _43  and  _44
REMARK   18  A    between atoms: _43  and  _46
REMARK   19  A    between atoms: _46  and  _47
REMARK   20  A    between atoms: _53  and  _55
REMARK   21  A    between atoms: _55  and  _56
REMARK   22  A    between atoms: _55  and  _58
REMARK   23  A    between atoms: _61  and  _63
REMARK   24  A    between atoms: _63  and  _64
REMARK   25  A    between atoms: _63  and  _66
REMARK   26  A    between atoms: _66  and  _67
REMARK   27  A    between atoms: _70  and  _72
REMARK   28  A    between atoms: _72  and  _73
REMARK   29  A    between atoms: _72  and  _75
REMARK   30  A    between atoms: _75  and  _76
REMARK   31  A    between atoms: _81  and  _82
REMARK   32  A    between atoms: _84  and  _86
REMARK   33  A    between atoms: _86  and  _87
REMARK   34  A    between atoms: _86  and  _89
REMARK   35  A    between atoms: _89  and  _90
REMARK   36  A    between atoms: _90  and  _91
REMARK   37  A    between atoms: _93  and  _95
REMARK   38  A    between atoms: _95  and  _96
REMARK   39  A    between atoms: _95  and  _98
REMARK   40  A    between atoms: _98  and  _99
REMARK   41  A    between atoms: _99  and  _100
REMARK   42  A    between atoms: _103  and  _105
REMARK   43  A    between atoms: _105  and  _106
REMARK   44  A    between atoms: _105  and  _108
REMARK   45  A    between atoms: _111  and  _113
REMARK   46  A    between atoms: _113  and  _114
REMARK   47  A    between atoms: _116  and  _118
REMARK   48  A    between atoms: _118  and  _119
REMARK   49  A    between atoms: _118  and  _121
REMARK   50  A    between atoms: _124  and  _126
REMARK   51  A    between atoms: _126  and  _127
REMARK   52  A    between atoms: _126  and  _129
REMARK   53  A    between atoms: _129  and  _130
REMARK   54  A    between atoms: _136  and  _138
REMARK   55  A    between atoms: _138  and  _139
REMARK   56  A    between atoms: _138  and  _141
REMARK   57  A    between atoms: _144  and  _146
REMARK   58  A    between atoms: _146  and  _147
REMARK   59  A    between atoms: _146  and  _149
REMARK   60  A    between atoms: _149  and  _150
REMARK   61  A    between atoms: _156  and  _158
REMARK   62  A    between atoms: _158  and  _159
REMARK   63  A    between atoms: _158  and  _161
REMARK   64  A    between atoms: _161  and  _162
REMARK   65  A    between atoms: _167  and  _168
REMARK   66  A    between atoms: _170  and  _172
REMARK   67  A    between atoms: _172  and  _173
REMARK   68  A    between atoms: _172  and  _175
REMARK   69  A    between atoms: _175  and  _176
REMARK   70  A    between atoms: _176  and  _177
REMARK   71  A    between atoms: _179  and  _181
REMARK   72  A    between atoms: _181  and  _182
REMARK   73  A    between atoms: _181  and  _184
REMARK   74  A    between atoms: _184  and  _185
REMARK   75  A    between atoms: _190  and  _191
REMARK   76  A    between atoms: _193  and  _195
REMARK   77  A    between atoms: _195  and  _196
REMARK   78  A    between atoms: _195  and  _198
REMARK   79  A    between atoms: _198  and  _199
REMARK   80  A    between atoms: _199  and  _200
REMARK   81  A    between atoms: _200  and  _201
REMARK   82  A    between atoms: _210  and  _212
REMARK   83  A    between atoms: _212  and  _213
REMARK   84  A    between atoms: _212  and  _215
REMARK   85  A    between atoms: _215  and  _216
REMARK   86  A    between atoms: _216  and  _217
REMARK   87  A    between atoms: _220  and  _222
REMARK   88  A    between atoms: _222  and  _223
REMARK   89  A    between atoms: _222  and  _225
REMARK   90  A    between atoms: _225  and  _226
REMARK   91  A    between atoms: _226  and  _227
REMARK   92  A    between atoms: _232  and  _234
REMARK   93  A    between atoms: _234  and  _235
REMARK   94  A    between atoms: _234  and  _237
REMARK   95  A    between atoms: _237  and  _238
REMARK   96  A    between atoms: _238  and  _239
REMARK   97  A    between atoms: _239  and  _240
REMARK   98  A    between atoms: _240  and  _241
REMARK   99  A    between atoms: _245  and  _247
REMARK  100  A    between atoms: _247  and  _248
REMARK  101  A    between atoms: _251  and  _253
REMARK  102  A    between atoms: _253  and  _254
REMARK  103  A    between atoms: _256  and  _258
REMARK  104  A    between atoms: _258  and  _259
REMARK  105  A    between atoms: _258  and  _261
REMARK  106  A    between atoms: _261  and  _262
REMARK  107  A    between atoms: _267  and  _269
REMARK  108  A    between atoms: _269  and  _270
REMARK  109  A    between atoms: _269  and  _272
REMARK  110  A    between atoms: _272  and  _273
REMARK  111  A    between atoms: _273  and  _274
REMARK  112  A    between atoms: _277  and  _279
REMARK  113  A    between atoms: _279  and  _280
REMARK  114  A    between atoms: _279  and  _282
REMARK  115  A    between atoms: _282  and  _283
REMARK  116  A    between atoms: _283  and  _284
REMARK  117  A    between atoms: _289  and  _291
REMARK  118  A    between atoms: _291  and  _292
REMARK  119  A    between atoms: _291  and  _294
REMARK  120  A    between atoms: _294  and  _295
REMARK  121  A    between atoms: _297  and  _299
REMARK  122  A    between atoms: _299  and  _300
REMARK  123  A    between atoms: _299  and  _302
REMARK  124  A    between atoms: _302  and  _303
REMARK  125  A    between atoms: _309  and  _311
REMARK  126  A    between atoms: _311  and  _312
REMARK  127  A    between atoms: _311  and  _314
REMARK  128  A    between atoms: _314  and  _315
REMARK  129  A    between atoms: _315  and  _316
REMARK  130  A    between atoms: _316  and  _317
REMARK  131  A    between atoms: _326  and  _328
REMARK  132  A    between atoms: _328  and  _329
REMARK  133  A    between atoms: _328  and  _331
REMARK  134  A    between atoms: _334  and  _336
REMARK  135  A    between atoms: _336  and  _337
REMARK  136  A    between atoms: _336  and  _339
REMARK  137  A    between atoms: _339  and  _340
REMARK  138  A    between atoms: _343  and  _345
REMARK  139  A    between atoms: _345  and  _346
REMARK  140  A    between atoms: _345  and  _348
REMARK  141  A    between atoms: _348  and  _349
REMARK  142  A    between atoms: _352  and  _354
REMARK  143  A    between atoms: _354  and  _355
REMARK  144  A    between atoms: _354  and  _357
REMARK  145  A    between atoms: _357  and  _358
REMARK  146  A    between atoms: _358  and  _359
REMARK  147  A    between atoms: _359  and  _360
REMARK  148  A    between atoms: _369  and  _371
REMARK  149  A    between atoms: _371  and  _372
REMARK  150  A    between atoms: _371  and  _374
REMARK  151  A    between atoms: _374  and  _375
REMARK  152  A    between atoms: _378  and  _380
REMARK  153  A    between atoms: _380  and  _381
REMARK  154  A    between atoms: _380  and  _383
REMARK  155  A    between atoms: _383  and  _384
REMARK  156  A    between atoms: _387  and  _389
REMARK  157  A    between atoms: _389  and  _390
REMARK  158  A    between atoms: _389  and  _392
REMARK  159  A    between atoms: _392  and  _393
REMARK  160  A    between atoms: _398  and  _399
REMARK  161  A    between atoms: _401  and  _403
REMARK  162  A    between atoms: _403  and  _404
REMARK  163  A    between atoms: _403  and  _406
REMARK  164  A    between atoms: _406  and  _407
REMARK  165  A    between atoms: _412  and  _413
REMARK  166  A    between atoms: _415  and  _417
REMARK  167  A    between atoms: _417  and  _418
REMARK  168  A    between atoms: _417  and  _420
REMARK  169  A    between atoms: _420  and  _421
REMARK  170  A    between atoms: _424  and  _426
REMARK  171  A    between atoms: _426  and  _427
REMARK  172  A    between atoms: _426  and  _429
REMARK  173  A    between atoms: _429  and  _430
REMARK  174  A    between atoms: _430  and  _431
REMARK  175  A    between atoms: _436  and  _438
REMARK  176  A    between atoms: _438  and  _439
REMARK  177  A    between atoms: _438  and  _441
REMARK  178  A    between atoms: _444  and  _446
REMARK  179  A    between atoms: _446  and  _447
REMARK  180  A    between atoms: _446  and  _449
REMARK  181  A    between atoms: _449  and  _450
REMARK  182  A    between atoms: _453  and  _455
REMARK  183  A    between atoms: _455  and  _456
REMARK  184  A    between atoms: _455  and  _458
REMARK  185  A    between atoms: _458  and  _459
REMARK  186  A    between atoms: _461  and  _463
REMARK  187  A    between atoms: _463  and  _464
REMARK  188  A    between atoms: _466  and  _468
REMARK  189  A    between atoms: _468  and  _469
REMARK  190  A    between atoms: _468  and  _471
REMARK  191  A    between atoms: _471  and  _472
REMARK  192  A    between atoms: _472  and  _774
REMARK  193  A    between atoms: _473  and  _475
REMARK  194  A    between atoms: _475  and  _476
REMARK  195  A    between atoms: _475  and  _478
REMARK  196  A    between atoms: _478  and  _479
REMARK  197  A    between atoms: _484  and  _485
REMARK  198  A    between atoms: _487  and  _489
REMARK  199  A    between atoms: _489  and  _490
REMARK  200  A    between atoms: _489  and  _492
REMARK  201  A    between atoms: _492  and  _493
REMARK  202  A    between atoms: _493  and  _494
REMARK  203  A    between atoms: _499  and  _501
REMARK  204  A    between atoms: _501  and  _502
REMARK  205  A    between atoms: _501  and  _504
REMARK  206  A    between atoms: _504  and  _505
REMARK  207  A    between atoms: _505  and  _506
REMARK  208  A    between atoms: _511  and  _513
REMARK  209  A    between atoms: _513  and  _514
REMARK  210  A    between atoms: _513  and  _516
REMARK  211  A    between atoms: _516  and  _517
REMARK  212  A    between atoms: _522  and  _523
REMARK  213  A    between atoms: _525  and  _527
REMARK  214  A    between atoms: _527  and  _528
REMARK  215  A    between atoms: _531  and  _533
REMARK  216  A    between atoms: _533  and  _534
REMARK  217  A    between atoms: _533  and  _536
REMARK  218  A    between atoms: _536  and  _537
REMARK  219  A    between atoms: _542  and  _543
REMARK  220  A    between atoms: _545  and  _547
REMARK  221  A    between atoms: _547  and  _548
REMARK  222  A    between atoms: _547  and  _550
REMARK  223  A    between atoms: _550  and  _551
REMARK  224  A    between atoms: _556  and  _557
REMARK  225  A    between atoms: _559  and  _561
REMARK  226  A    between atoms: _561  and  _562
REMARK  227  A    between atoms: _561  and  _564
REMARK  228  A    between atoms: _564  and  _565
REMARK  229  A    between atoms: _568  and  _570
REMARK  230  A    between atoms: _570  and  _571
REMARK  231  A    between atoms: _574  and  _576
REMARK  232  A    between atoms: _576  and  _577
REMARK  233  A    between atoms: _580  and  _582
REMARK  234  A    between atoms: _582  and  _583
REMARK  235  A    between atoms: _582  and  _585
REMARK  236  A    between atoms: _585  and  _586
REMARK  237  A    between atoms: _589  and  _591
REMARK  238  A    between atoms: _591  and  _592
REMARK  239  A    between atoms: _591  and  _594
REMARK  240  A    between atoms: _594  and  _595
REMARK  241  A    between atoms: _598  and  _600
REMARK  242  A    between atoms: _600  and  _601
REMARK  243  A    between atoms: _600  and  _603
REMARK  244  A    between atoms: _603  and  _604
REMARK  245  A    between atoms: _607  and  _609
REMARK  246  A    between atoms: _609  and  _610
REMARK  247  A    between atoms: _609  and  _612
REMARK  248  A    between atoms: _612  and  _613
REMARK  249  A    between atoms: _613  and  _614
REMARK  250  A    between atoms: _614  and  _615
REMARK  251  A    between atoms: _615  and  _616
REMARK  252  A    between atoms: _620  and  _622
REMARK  253  A    between atoms: _622  and  _623
REMARK  254  A    between atoms: _622  and  _625
REMARK  255  A    between atoms: _625  and  _626
REMARK  256  A    between atoms: _631  and  _633
REMARK  257  A    between atoms: _633  and  _634
REMARK  258  A    between atoms: _633  and  _636
REMARK  259  A    between atoms: _636  and  _637
REMARK  260  A    between atoms: _637  and  _638
REMARK  261  A    between atoms: _638  and  _639
REMARK  262  A    between atoms: _639  and  _640
REMARK  263  A    between atoms: _644  and  _646
REMARK  264  A    between atoms: _646  and  _647
REMARK  265  A    between atoms: _646  and  _649
REMARK  266  A    between atoms: _649  and  _650
REMARK  267  A    between atoms: _660  and  _662
REMARK  268  A    between atoms: _662  and  _663
REMARK  269  A    between atoms: _666  and  _668
REMARK  270  A    between atoms: _668  and  _669
REMARK  271  A    between atoms: _671  and  _673
REMARK  272  A    between atoms: _673  and  _674
REMARK  273  A    between atoms: _673  and  _676
REMARK  274  A    between atoms: _676  and  _677
REMARK  275  A    between atoms: _677  and  _678
REMARK  276  A    between atoms: _681  and  _683
REMARK  277  A    between atoms: _683  and  _684
REMARK  278  A    between atoms: _687  and  _689
REMARK  279  A    between atoms: _689  and  _690
REMARK  280  A    between atoms: _689  and  _692
REMARK  281  A    between atoms: _692  and  _693
REMARK  282  A    between atoms: _693  and  _694
REMARK  283  A    between atoms: _694  and  _695
REMARK  284  A    between atoms: _704  and  _706
REMARK  285  A    between atoms: _706  and  _707
REMARK  286  A    between atoms: _706  and  _709
REMARK  287  A    between atoms: _709  and  _710
REMARK  288  A    between atoms: _713  and  _715
REMARK  289  A    between atoms: _715  and  _716
REMARK  290  A    between atoms: _715  and  _718
REMARK  291  A    between atoms: _718  and  _719
REMARK  292  A    between atoms: _719  and  _720
REMARK  293  A    between atoms: _720  and  _721
REMARK  294  A    between atoms: _730  and  _732
REMARK  295  A    between atoms: _732  and  _733
REMARK  296  A    between atoms: _736  and  _738
REMARK  297  A    between atoms: _738  and  _739
REMARK  298  A    between atoms: _738  and  _741
REMARK  299  A    between atoms: _741  and  _742
REMARK  300  A    between atoms: _747  and  _748
REMARK  301  A    between atoms: _750  and  _752
REMARK  302  A    between atoms: _752  and  _753
REMARK  303  A    between atoms: _752  and  _755
REMARK  304  A    between atoms: _755  and  _756
REMARK  305  A    between atoms: _759  and  _761
REMARK  306  A    between atoms: _761  and  _762
REMARK  307  A    between atoms: _761  and  _764
REMARK  308  A    between atoms: _764  and  _765
REMARK  309  A    between atoms: _768  and  _770
REMARK  310  A    between atoms: _770  and  _771
REMARK  311  A    between atoms: _770  and  _773
REMARK  312  A    between atoms: _773  and  _774
REMARK  313  A    between atoms: _775  and  _777
REMARK  314  A    between atoms: _777  and  _778
REMARK  315  A    between atoms: _777  and  _780
REMARK  316  A    between atoms: _783  and  _785
REMARK  317  A    between atoms: _785  and  _786
REMARK  318  A    between atoms: _785  and  _788
REMARK  319  A    between atoms: _788  and  _789
REMARK  320  A    between atoms: _789  and  _790
REMARK  321  A    between atoms: _793  and  _795
REMARK  322  A    between atoms: _795  and  _796
REMARK  323  A    between atoms: _795  and  _798
REMARK  324  A    between atoms: _798  and  _799
REMARK  325  A    between atoms: _809  and  _811
REMARK  326  A    between atoms: _811  and  _812
REMARK  327  A    between atoms: _811  and  _814
REMARK  328  A    between atoms: _814  and  _815
REMARK  329  A    between atoms: _818  and  _820
REMARK  330  A    between atoms: _820  and  _821
REMARK  331  A    between atoms: _820  and  _823
REMARK  332  A    between atoms: _823  and  _824
REMARK  333  A    between atoms: _829  and  _830
REMARK                            x       y       z     vdW  Elec       q    Type
REMARK                         _______ _______ _______ _____ _____    ______ ____
ROOT
ATOM      1  CB  PHE A   1     -15.050  -2.520  22.951  0.00  0.00    +0.051 C 
ENDROOT
BRANCH   1   2
ATOM      2  CG  PHE A   1     -16.383  -2.143  22.367  0.00  0.00    -0.020 A 
ATOM      3  CD2 PHE A   1     -17.437  -3.046  22.360  0.00  0.00    -0.004 A 
ATOM      4  CE2 PHE A   1     -18.678  -2.696  21.821  0.00  0.00    -0.000 A 
ATOM      5  CZ  PHE A   1     -18.862  -1.442  21.279  0.00  0.00    -0.000 A 
ATOM      6  CE1 PHE A   1     -17.804  -0.530  21.269  0.00  0.00    -0.000 A 
ATOM      7  CD1 PHE A   1     -16.578  -0.886  21.809  0.00  0.00    -0.004 A 
ENDBRANCH   1   2
BRANCH   1   8
ATOM      8  CA  PHE A   1     -14.110  -3.196  21.956  0.00  0.00    +0.137 C 
BRANCH   8   9
ATOM      9  N   PHE A   1     -12.813  -3.432  22.555  0.00  0.00    -0.239 NA
ATOM     10  H   PHE A   1     -12.259  -2.625  22.905  0.00  0.00    +0.142 HD
ENDBRANCH   8   9
BRANCH   8  11
ATOM     11  C   PHE A   1     -13.876  -2.329  20.728  0.00  0.00    +0.224 C 
ATOM     12  O   PHE A   1     -13.217  -1.287  20.807  0.00  0.00    -0.287 OA
ENDBRANCH   8  11
ENDBRANCH   1   8
TORSDOF 4
REMARK  Name = ../refined-set-2016/3p9l/3p9l_pocket.pdb
REMARK  333 active torsions:
REMARK  status: ('A' for Active; 'I' for Inactive)
REMARK    1  A    between atoms: _1  and  _3
REMARK    2  A    between atoms: _3  and  _4
REMARK    3  A    between atoms: _3  and  _6
REMARK    4  A    between atoms: _6  and  _7
REMARK    5  A    between atoms: _10  and  _12
REMARK    6  A    between atoms: _12  and  _13
REMARK    7  A    between atoms: _12  and  _15
REMARK    8  A    between atoms: _15  and  _16
REMARK    9  A    between atoms: _16  and  _17
REMARK   10  A    between atoms: _17  and  _18
REMARK   11  A    between atoms: _27  and  _29
REMARK   12  A    between atoms: _29  and  _30
REMARK   13  A    between atoms: _29  and  _32
REMARK   14  A    between atoms: _32  and  _33
REMARK   15  A    between atoms: _38  and  _39
REMARK   16  A    between atoms: _41  and  _43
REMARK   17  A    between atoms: _43  and  _44
REMARK   18  A    between atoms: _43  and  _46
REMARK   19  A    between atoms: _46  and  _47
REMARK   20  A    between atoms: _53  and  _55
REMARK   21  A    between atoms: _55  and  _56
REMARK   22  A    between atoms: _55  and  _58
REMARK   23  A    between atoms: _61  and  _63
REMARK   24  A    between atoms: _63  and  _64
REMARK   25  A    between atoms: _63  and  _66
REMARK   26  A    between atoms: _66  and  _67
REMARK   27  A    between atoms: _70  and  _72
REMARK   28  A    between atoms: _72  and  _73
REMARK   29  A    between atoms: _72  and  _75
REMARK   30  A    between atoms: _75  and  _76
REMARK   31  A    between atoms: _81  and  _82
REMARK   32  A    between atoms: _84  and  _86
REMARK   33  A    between atoms: _86  and  _87
REMARK   34  A    between atoms: _86  and  _89
REMARK   35  A    between atoms: _89  and  _90
REMARK   36  A    between atoms: _90  and  _91
REMARK   37  A    between atoms: _93  and  _95
REMARK   38  A    between atoms: _95  and  _96
REMARK   39  A    between atoms: _95  and  _98
REMARK   40  A    between atoms: _98  and  _99
REMARK   41  A    between atoms: _99  and  _100
REMARK   42  A    between atoms: _103  and  _105
REMARK   43  A    between atoms: _105  and  _106
REMARK   44  A    between atoms: _105  and  _108
REMARK   45  A    between atoms: _111  and  _113
REMARK   46  A    between atoms: _113  and  _114
REMARK   47  A    between atoms: _116  and  _118
REMARK   48  A    between atoms: _118  and  _119
REMARK   49  A    between atoms: _118  and  _121
REMARK   50  A    between atoms: _124  and  _126
REMARK   51  A    between atoms: _126  and  _127
REMARK   52  A    between atoms: _126  and  _129
REMARK   53  A    between atoms: _129  and  _130
REMARK   54  A    between atoms: _136  and  _138
REMARK   55  A    between atoms: _138  and  _139
REMARK   56  A    between atoms: _138  and  _141
REMARK   57  A    between atoms: _144  and  _146
REMARK   58  A    between atoms: _146  and  _147
REMARK   59  A    between atoms: _146  and  _149
REMARK   60  A    between atoms: _149  and  _150
REMARK   61  A    between atoms: _156  and  _158
REMARK   62  A    between atoms: _158  and  _159
REMARK   63  A    between atoms: _158  and  _161
REMARK   64  A    between atoms: _161  and  _162
REMARK   65  A    between atoms: _167  and  _168
REMARK   66  A    between atoms: _170  and  _172
REMARK   67  A    between atoms: _172  and  _173
REMARK   68  A    between atoms: _172  and  _175
REMARK   69  A    between atoms: _175  and  _176
REMARK   70  A    between atoms: _176  and  _177
REMARK   71  A    between atoms: _179  and  _181
REMARK   72  A    between atoms: _181  and  _182
REMARK   73  A    between atoms: _181  and  _184
REMARK   74  A    between atoms: _184  and  _185
REMARK   75  A    between atoms: _190  and  _191
REMARK   76  A    between atoms: _193  and  _195
REMARK   77  A    between atoms: _195  and  _196
REMARK   78  A    between atoms: _195  and  _198
REMARK   79  A    between atoms: _198  and  _199
REMARK   80  A    between atoms: _199  and  _200
REMARK   81  A    between atoms: _200  and  _201
REMARK   82  A    between atoms: _210  and  _212
REMARK   83  A    between atoms: _212  and  _213
REMARK   84  A    between atoms: _212  and  _215
REMARK   85  A    between atoms: _215  and  _216
REMARK   86  A    between atoms: _216  and  _217
REMARK   87  A    between atoms: _220  and  _222
REMARK   88  A    between atoms: _222  and  _223
REMARK   89  A    between atoms: _222  and  _225
REMARK   90  A    between atoms: _225  and  _226
REMARK   91  A    between atoms: _226  and  _227
REMARK   92  A    between atoms: _232  and  _234
REMARK   93  A    between atoms: _234  and  _235
REMARK   94  A    between atoms: _234  and  _237
REMARK   95  A    between atoms: _237  and  _238
REMARK   96  A    between atoms: _238  and  _239
REMARK   97  A    between atoms: _239  and  _240
REMARK   98  A    between atoms: _240  and  _241
REMARK   99  A    between atoms: _245  and  _247
REMARK  100  A    between atoms: _247  and  _248
REMARK  101  A    between atoms: _251  and  _253
REMARK  102  A    between atoms: _253  and  _254
REMARK  103  A    between atoms: _256  and  _258
REMARK  104  A    between atoms: _258  and  _259
REMARK  105  A    between atoms: _258  and  _261
REMARK  106  A    between atoms: _261  and  _262
REMARK  107  A    between atoms: _267  and  _269
REMARK  108  A    between atoms: _269  and  _270
REMARK  109  A    between atoms: _269  and  _272
REMARK  110  A    between atoms: _272  and  _273
REMARK  111  A    between atoms: _273  and  _274
REMARK  112  A    between atoms: _277  and  _279
REMARK  113  A    between atoms: _279  and  _280
REMARK  114  A    between atoms: _279  and  _282
REMARK  115  A    between atoms: _282  and  _283
REMARK  116  A    between atoms: _283  and  _284
REMARK  117  A    between atoms: _289  and  _291
REMARK  118  A    between atoms: _291  and  _292
REMARK  119  A    between atoms: _291  and  _294
REMARK  120  A    between atoms: _294  and  _295
REMARK  121  A    between atoms: _297  and  _299
REMARK  122  A    between atoms: _299  and  _300
REMARK  123  A    between atoms: _299  and  _302
REMARK  124  A    between atoms: _302  and  _303
REMARK  125  A    between atoms: _309  and  _311
REMARK  126  A    between atoms: _311  and  _312
REMARK  127  A    between atoms: _311  and  _314
REMARK  128  A    between atoms: _314  and  _315
REMARK  129  A    between atoms: _315  and  _316
REMARK  130  A    between atoms: _316  and  _317
REMARK  131  A    between atoms: _326  and  _328
REMARK  132  A    between atoms: _328  and  _329
REMARK  133  A    between atoms: _328  and  _331
REMARK  134  A    between atoms: _334  and  _336
REMARK  135  A    between atoms: _336  and  _337
REMARK  136  A    between atoms: _336  and  _339
REMARK  137  A    between atoms: _339  and  _340
REMARK  138  A    between atoms: _343  and  _345
REMARK  139  A    between atoms: _345  and  _346
REMARK  140  A    between atoms: _345  and  _348
REMARK  141  A    between atoms: _348  and  _349
REMARK  142  A    between atoms: _352  and  _354
REMARK  143  A    between atoms: _354  and  _355
REMARK  144  A    between atoms: _354  and  _357
REMARK  145  A    between atoms: _357  and  _358
REMARK  146  A    between atoms: _358  and  _359
REMARK  147  A    between atoms: _359  and  _360
REMARK  148  A    between atoms: _369  and  _371
REMARK  149  A    between atoms: _371  and  _372
REMARK  150  A    between atoms: _371  and  _374
REMARK  151  A    between atoms: _374  and  _375
REMARK  152  A    between atoms: _378  and  _380
REMARK  153  A    between atoms: _380  and  _381
REMARK  154  A    between atoms: _380  and  _383
REMARK  155  A    between atoms: _383  and  _384
REMARK  156  A    between atoms: _387  and  _389
REMARK  157  A    between atoms: _389  and  _390
REMARK  158  A    between atoms: _389  and  _392
REMARK  159  A    between atoms: _392  and  _393
REMARK  160  A    between atoms: _398  and  _399
REMARK  161  A    between atoms: _401  and  _403
REMARK  162  A    between atoms: _403  and  _404
REMARK  163  A    between atoms: _403  and  _406
REMARK  164  A    between atoms: _406  and  _407
REMARK  165  A    between atoms: _412  and  _413
REMARK  166  A    between atoms: _415  and  _417
REMARK  167  A    between atoms: _417  and  _418
REMARK  168  A    between atoms: _417  and  _420
REMARK  169  A    between atoms: _420  and  _421
REMARK  170  A    between atoms: _424  and  _426
REMARK  171  A    between atoms: _426  and  _427
REMARK  172  A    between atoms: _426  and  _429
REMARK  173  A    between atoms: _429  and  _430
REMARK  174  A    between atoms: _430  and  _431
REMARK  175  A    between atoms: _436  and  _438
REMARK  176  A    between atoms: _438  and  _439
REMARK  177  A    between atoms: _438  and  _441
REMARK  178  A    between atoms: _444  and  _446
REMARK  179  A    between atoms: _446  and  _447
REMARK  180  A    between atoms: _446  and  _449
REMARK  181  A    between atoms: _449  and  _450
REMARK  182  A    between atoms: _453  and  _455
REMARK  183  A    between atoms: _455  and  _456
REMARK  184  A    between atoms: _455  and  _458
REMARK  185  A    between atoms: _458  and  _459
REMARK  186  A    between atoms: _461  and  _463
REMARK  187  A    between atoms: _463  and  _464
REMARK  188  A    between atoms: _466  and  _468
REMARK  189  A    between atoms: _468  and  _469
REMARK  190  A    between atoms: _468  and  _471
REMARK  191  A    between atoms: _471  and  _472
REMARK  192  A    between atoms: _472  and  _774
REMARK  193  A    between atoms: _473  and  _475
REMARK  194  A    between atoms: _475  and  _476
REMARK  195  A    between atoms: _475  and  _478
REMARK  196  A    between atoms: _478  and  _479
REMARK  197  A    between atoms: _484  and  _485
REMARK  198  A    between atoms: _487  and  _489
REMARK  199  A    between atoms: _489  and  _490
REMARK  200  A    between atoms: _489  and  _492
REMARK  201  A    between atoms: _492  and  _493
REMARK  202  A    between atoms: _493  and  _494
REMARK  203  A    between atoms: _499  and  _501
REMARK  204  A    between atoms: _501  and  _502
REMARK  205  A    between atoms: _501  and  _504
REMARK  206  A    between atoms: _504  and  _505
REMARK  207  A    between atoms: _505  and  _506
REMARK  208  A    between atoms: _511  and  _513
REMARK  209  A    between atoms: _513  and  _514
REMARK  210  A    between atoms: _513  and  _516
REMARK  211  A    between atoms: _516  and  _517
REMARK  212  A    between atoms: _522  and  _523
REMARK  213  A    between atoms: _525  and  _527
REMARK  214  A    between atoms: _527  and  _528
REMARK  215  A    between atoms: _531  and  _533
REMARK  216  A    between atoms: _533  and  _534
REMARK  217  A    between atoms: _533  and  _536
REMARK  218  A    between atoms: _536  and  _537
REMARK  219  A    between atoms: _542  and  _543
REMARK  220  A    between atoms: _545  and  _547
REMARK  221  A    between atoms: _547  and  _548
REMARK  222  A    between atoms: _547  and  _550
REMARK  223  A    between atoms: _550  and  _551
REMARK  224  A    between atoms: _556  and  _557
REMARK  225  A    between atoms: _559  and  _561
REMARK  226  A    between atoms: _561  and  _562
REMARK  227  A    between atoms: _561  and  _564
REMARK  228  A    between atoms: _564  and  _565
REMARK  229  A    between atoms: _568  and  _570
REMARK  230  A    between atoms: _570  and  _571
REMARK  231  A    between atoms: _574  and  _576
REMARK  232  A    between atoms: _576  and  _577
REMARK  233  A    between atoms: _580  and  _582
REMARK  234  A    between atoms: _582  and  _583
REMARK  235  A    between atoms: _582  and  _585
REMARK  236  A    between atoms: _585  and  _586
REMARK  237  A    between atoms: _589  and  _591
REMARK  238  A    between atoms: _591  and  _592
REMARK  239  A    between atoms: _591  and  _594
REMARK  240  A    between atoms: _594  and  _595
REMARK  241  A    between atoms: _598  and  _600
REMARK  242  A    between atoms: _600  and  _601
REMARK  243  A    between atoms: _600  and  _603
REMARK  244  A    between atoms: _603  and  _604
REMARK  245  A    between atoms: _607  and  _609
REMARK  246  A    between atoms: _609  and  _610
REMARK  247  A    between atoms: _609  and  _612
REMARK  248  A    between atoms: _612  and  _613
REMARK  249  A    between atoms: _613  and  _614
REMARK  250  A    between atoms: _614  and  _615
REMARK  251  A    between atoms: _615  and  _616
REMARK  252  A    between atoms: _620  and  _622
REMARK  253  A    between atoms: _622  and  _623
REMARK  254  A    between atoms: _622  and  _625
REMARK  255  A    between atoms: _625  and  _626
REMARK  256  A    between atoms: _631  and  _633
REMARK  257  A    between atoms: _633  and  _634
REMARK  258  A    between atoms: _633  and  _636
REMARK  259  A    between atoms: _636  and  _637
REMARK  260  A    between atoms: _637  and  _638
REMARK  261  A    between atoms: _638  and  _639
REMARK  262  A    between atoms: _639  and  _640
REMARK  263  A    between atoms: _644  and  _646
REMARK  264  A    between atoms: _646  and  _647
REMARK  265  A    between atoms: _646  and  _649
REMARK  266  A    between atoms: _649  and  _650
REMARK  267  A    between atoms: _660  and  _662
REMARK  268  A    between atoms: _662  and  _663
REMARK  269  A    between atoms: _666  and  _668
REMARK  270  A    between atoms: _668  and  _669
REMARK  271  A    between atoms: _671  and  _673
REMARK  272  A    between atoms: _673  and  _674
REMARK  273  A    between atoms: _673  and  _676
REMARK  274  A    between atoms: _676  and  _677
REMARK  275  A    between atoms: _677  and  _678
REMARK  276  A    between atoms: _681  and  _683
REMARK  277  A    between atoms: _683  and  _684
REMARK  278  A    between atoms: _687  and  _689
REMARK  279  A    between atoms: _689  and  _690
REMARK  280  A    between atoms: _689  and  _692
REMARK  281  A    between atoms: _692  and  _693
REMARK  282  A    between atoms: _693  and  _694
REMARK  283  A    between atoms: _694  and  _695
REMARK  284  A    between atoms: _704  and  _706
REMARK  285  A    between atoms: _706  and  _707
REMARK  286  A    between atoms: _706  and  _709
REMARK  287  A    between atoms: _709  and  _710
REMARK  288  A    between atoms: _713  and  _715
REMARK  289  A    between atoms: _715  and  _716
REMARK  290  A    between atoms: _715  and  _718
REMARK  291  A    between atoms: _718  and  _719
REMARK  292  A    between atoms: _719  and  _720
REMARK  293  A    between atoms: _720  and  _721
REMARK  294  A    between atoms: _730  and  _732
REMARK  295  A    between atoms: _732  and  _733
REMARK  296  A    between atoms: _736  and  _738
REMARK  297  A    between atoms: _738  and  _739
REMARK  298  A    between atoms: _738  and  _741
REMARK  299  A    between atoms: _741  and  _742
REMARK  300  A    between atoms: _747  and  _748
REMARK  301  A    between atoms: _750  and  _752
REMARK  302  A    between atoms: _752  and  _753
REMARK  303  A    between atoms: _752  and  _755
REMARK  304  A    between atoms: _755  and  _756
REMARK  305  A    between atoms: _759  and  _761
REMARK  306  A    between atoms: _761  and  _762
REMARK  307  A    between atoms: _761  and  _764
REMARK  308  A    between atoms: _764  and  _765
REMARK  309  A    between atoms: _768  and  _770
REMARK  310  A    between atoms: _770  and  _771
REMARK  311  A    between atoms: _770  and  _773
REMARK  312  A    between atoms: _773  and  _774
REMARK  313  A    between atoms: _775  and  _777
REMARK  314  A    between atoms: _777  and  _778
REMARK  315  A    between atoms: _777  and  _780
REMARK  316  A    between atoms: _783  and  _785
REMARK  317  A    between atoms: _785  and  _786
REMARK  318  A    between atoms: _785  and  _788
REMARK  319  A    between atoms: _788  and  _789
REMARK  320  A    between atoms: _789  and  _790
REMARK  321  A    between atoms: _793  and  _795
REMARK  322  A    between atoms: _795  and  _796
REMARK  323  A    between atoms: _795  and  _798
REMARK  324  A    between atoms: _798  and  _799
REMARK  325  A    between atoms: _809  and  _811
REMARK  326  A    between atoms: _811  and  _812
REMARK  327  A    between atoms: _811  and  _814
REMARK  328  A    between atoms: _814  and  _815
REMARK  329  A    between atoms: _818  and  _820
REMARK  330  A    between atoms: _820  and  _821
REMARK  331  A    between atoms: _820  and  _823
REMARK  332  A    between atoms: _823  and  _824
REMARK  333  A    between atoms: _829  and  _830
REMARK                            x       y       z     vdW  Elec       q    Type
REMARK                         _______ _______ _______ _____ _____    ______ ____
ROOT
ATOM      1  CG  TYR A   1     -15.466  -5.241  26.043  0.00  0.00    -0.020 A 
ATOM      2  CD2 TYR A   1     -14.211  -5.372  26.620  0.00  0.00    -0.001 A 
ATOM      3  CE2 TYR A   1     -13.533  -4.273  27.119  0.00  0.00    +0.036 A 
ATOM      4  CZ  TYR A   1     -14.110  -3.021  27.045  0.00  0.00    +0.134 A 
ATOM      5  CE1 TYR A   1     -15.355  -2.861  26.486  0.00  0.00    +0.036 A 
ATOM      6  CD1 TYR A   1     -16.031  -3.972  25.990  0.00  0.00    -0.001 A 
ENDROOT
BRANCH   4   7
ATOM      7  OH  TYR A   1     -13.428  -1.931  27.538  0.00  0.00    -0.506 OA
ATOM      8  HH  TYR A   1     -13.974  -1.116  27.409  0.00  0.00    +0.292 HD
ENDBRANCH   4   7
BRANCH   1   9
ATOM      9  CB  TYR A   1     -16.214  -6.452  25.521  0.00  0.00    +0.051 C 
BRANCH   9  10
ATOM     10  CA  TYR A   1     -16.075  -6.697  24.023  0.00  0.00    +0.137 C 
BRANCH  10  11
ATOM     11  N   TYR A   1     -17.356  -6.571  23.347  0.00  0.00    -0.239 NA
ATOM     12  H   TYR A   1     -18.212  -6.334  23.888  0.00  0.00    +0.142 HD
ENDBRANCH  10  11
BRANCH  10  13
ATOM     13  C   TYR A   1     -15.630  -8.125  23.789  0.00  0.00    +0.224 C 
ATOM     14  O   TYR A   1     -16.431  -9.059  23.901  0.00  0.00    -0.287 OA
ENDBRANCH  10  13
ENDBRANCH   9  10
ENDBRANCH   1   9
TORSDOF 5
REMARK  Name = ../refined-set-2016/3p9l/3p9l_pocket.pdb
REMARK  333 active torsions:
REMARK  status: ('A' for Active; 'I' for Inactive)
REMARK    1  A    between atoms: _1  and  _3
REMARK    2  A    between atoms: _3  and  _4
REMARK    3  A    between atoms: _3  and  _6
REMARK    4  A    between atoms: _6  and  _7
REMARK    5  A    between atoms: _10  and  _12
REMARK    6  A    between atoms: _12  and  _13
REMARK    7  A    between atoms: _12  and  _15
REMARK    8  A    between atoms: _15  and  _16
REMARK    9  A    between atoms: _16  and  _17
REMARK   10  A    between atoms: _17  and  _18
REMARK   11  A    between atoms: _27  and  _29
REMARK   12  A    between atoms: _29  and  _30
REMARK   13  A    between atoms: _29  and  _32
REMARK   14  A    between atoms: _32  and  _33
REMARK   15  A    between atoms: _38  and  _39
REMARK   16  A    between atoms: _41  and  _43
REMARK   17  A    between atoms: _43  and  _44
REMARK   18  A    between atoms: _43  and  _46
REMARK   19  A    between atoms: _46  and  _47
REMARK   20  A    between atoms: _53  and  _55
REMARK   21  A    between atoms: _55  and  _56
REMARK   22  A    between atoms: _55  and  _58
REMARK   23  A    between atoms: _61  and  _63
REMARK   24  A    between atoms: _63  and  _64
REMARK   25  A    between atoms: _63  and  _66
REMARK   26  A    between atoms: _66  and  _67
REMARK   27  A    between atoms: _70  and  _72
REMARK   28  A    between atoms: _72  and  _73
REMARK   29  A    between atoms: _72  and  _75
REMARK   30  A    between atoms: _75  and  _76
REMARK   31  A    between atoms: _81  and  _82
REMARK   32  A    between atoms: _84  and  _86
REMARK   33  A    between atoms: _86  and  _87
REMARK   34  A    between atoms: _86  and  _89
REMARK   35  A    between atoms: _89  and  _90
REMARK   36  A    between atoms: _90  and  _91
REMARK   37  A    between atoms: _93  and  _95
REMARK   38  A    between atoms: _95  and  _96
REMARK   39  A    between atoms: _95  and  _98
REMARK   40  A    between atoms: _98  and  _99
REMARK   41  A    between atoms: _99  and  _100
REMARK   42  A    between atoms: _103  and  _105
REMARK   43  A    between atoms: _105  and  _106
REMARK   44  A    between atoms: _105  and  _108
REMARK   45  A    between atoms: _111  and  _113
REMARK   46  A    between atoms: _113  and  _114
REMARK   47  A    between atoms: _116  and  _118
REMARK   48  A    between atoms: _118  and  _119
REMARK   49  A    between atoms: _118  and  _121
REMARK   50  A    between atoms: _124  and  _126
REMARK   51  A    between atoms: _126  and  _127
REMARK   52  A    between atoms: _126  and  _129
REMARK   53  A    between atoms: _129  and  _130
REMARK   54  A    between atoms: _136  and  _138
REMARK   55  A    between atoms: _138  and  _139
REMARK   56  A    between atoms: _138  and  _141
REMARK   57  A    between atoms: _144  and  _146
REMARK   58  A    between atoms: _146  and  _147
REMARK   59  A    between atoms: _146  and  _149
REMARK   60  A    between atoms: _149  and  _150
REMARK   61  A    between atoms: _156  and  _158
REMARK   62  A    between atoms: _158  and  _159
REMARK   63  A    between atoms: _158  and  _161
REMARK   64  A    between atoms: _161  and  _162
REMARK   65  A    between atoms: _167  and  _168
REMARK   66  A    between atoms: _170  and  _172
REMARK   67  A    between atoms: _172  and  _173
REMARK   68  A    between atoms: _172  and  _175
REMARK   69  A    between atoms: _175  and  _176
REMARK   70  A    between atoms: _176  and  _177
REMARK   71  A    between atoms: _179  and  _181
REMARK   72  A    between atoms: _181  and  _182
REMARK   73  A    between atoms: _181  and  _184
REMARK   74  A    between atoms: _184  and  _185
REMARK   75  A    between atoms: _190  and  _191
REMARK   76  A    between atoms: _193  and  _195
REMARK   77  A    between atoms: _195  and  _196
REMARK   78  A    between atoms: _195  and  _198
REMARK   79  A    between atoms: _198  and  _199
REMARK   80  A    between atoms: _199  and  _200
REMARK   81  A    between atoms: _200  and  _201
REMARK   82  A    between atoms: _210  and  _212
REMARK   83  A    between atoms: _212  and  _213
REMARK   84  A    between atoms: _212  and  _215
REMARK   85  A    between atoms: _215  and  _216
REMARK   86  A    between atoms: _216  and  _217
REMARK   87  A    between atoms: _220  and  _222
REMARK   88  A    between atoms: _222  and  _223
REMARK   89  A    between atoms: _222  and  _225
REMARK   90  A    between atoms: _225  and  _226
REMARK   91  A    between atoms: _226  and  _227
REMARK   92  A    between atoms: _232  and  _234
REMARK   93  A    between atoms: _234  and  _235
REMARK   94  A    between atoms: _234  and  _237
REMARK   95  A    between atoms: _237  and  _238
REMARK   96  A    between atoms: _238  and  _239
REMARK   97  A    between atoms: _239  and  _240
REMARK   98  A    between atoms: _240  and  _241
REMARK   99  A    between atoms: _245  and  _247
REMARK  100  A    between atoms: _247  and  _248
REMARK  101  A    between atoms: _251  and  _253
REMARK  102  A    between atoms: _253  and  _254
REMARK  103  A    between atoms: _256  and  _258
REMARK  104  A    between atoms: _258  and  _259
REMARK  105  A    between atoms: _258  and  _261
REMARK  106  A    between atoms: _261  and  _262
REMARK  107  A    between atoms: _267  and  _269
REMARK  108  A    between atoms: _269  and  _270
REMARK  109  A    between atoms: _269  and  _272
REMARK  110  A    between atoms: _272  and  _273
REMARK  111  A    between atoms: _273  and  _274
REMARK  112  A    between atoms: _277  and  _279
REMARK  113  A    between atoms: _279  and  _280
REMARK  114  A    between atoms: _279  and  _282
REMARK  115  A    between atoms: _282  and  _283
REMARK  116  A    between atoms: _283  and  _284
REMARK  117  A    between atoms: _289  and  _291
REMARK  118  A    between atoms: _291  and  _292
REMARK  119  A    between atoms: _291  and  _294
REMARK  120  A    between atoms: _294  and  _295
REMARK  121  A    between atoms: _297  and  _299
REMARK  122  A    between atoms: _299  and  _300
REMARK  123  A    between atoms: _299  and  _302
REMARK  124  A    between atoms: _302  and  _303
REMARK  125  A    between atoms: _309  and  _311
REMARK  126  A    between atoms: _311  and  _312
REMARK  127  A    between atoms: _311  and  _314
REMARK  128  A    between atoms: _314  and  _315
REMARK  129  A    between atoms: _315  and  _316
REMARK  130  A    between atoms: _316  and  _317
REMARK  131  A    between atoms: _326  and  _328
REMARK  132  A    between atoms: _328  and  _329
REMARK  133  A    between atoms: _328  and  _331
REMARK  134  A    between atoms: _334  and  _336
REMARK  135  A    between atoms: _336  and  _337
REMARK  136  A    between atoms: _336  and  _339
REMARK  137  A    between atoms: _339  and  _340
REMARK  138  A    between atoms: _343  and  _345
REMARK  139  A    between atoms: _345  and  _346
REMARK  140  A    between atoms: _345  and  _348
REMARK  141  A    between atoms: _348  and  _349
REMARK  142  A    between atoms: _352  and  _354
REMARK  143  A    between atoms: _354  and  _355
REMARK  144  A    between atoms: _354  and  _357
REMARK  145  A    between atoms: _357  and  _358
REMARK  146  A    between atoms: _358  and  _359
REMARK  147  A    between atoms: _359  and  _360
REMARK  148  A    between atoms: _369  and  _371
REMARK  149  A    between atoms: _371  and  _372
REMARK  150  A    between atoms: _371  and  _374
REMARK  151  A    between atoms: _374  and  _375
REMARK  152  A    between atoms: _378  and  _380
REMARK  153  A    between atoms: _380  and  _381
REMARK  154  A    between atoms: _380  and  _383
REMARK  155  A    between atoms: _383  and  _384
REMARK  156  A    between atoms: _387  and  _389
REMARK  157  A    between atoms: _389  and  _390
REMARK  158  A    between atoms: _389  and  _392
REMARK  159  A    between atoms: _392  and  _393
REMARK  160  A    between atoms: _398  and  _399
REMARK  161  A    between atoms: _401  and  _403
REMARK  162  A    between atoms: _403  and  _404
REMARK  163  A    between atoms: _403  and  _406
REMARK  164  A    between atoms: _406  and  _407
REMARK  165  A    between atoms: _412  and  _413
REMARK  166  A    between atoms: _415  and  _417
REMARK  167  A    between atoms: _417  and  _418
REMARK  168  A    between atoms: _417  and  _420
REMARK  169  A    between atoms: _420  and  _421
REMARK  170  A    between atoms: _424  and  _426
REMARK  171  A    between atoms: _426  and  _427
REMARK  172  A    between atoms: _426  and  _429
REMARK  173  A    between atoms: _429  and  _430
REMARK  174  A    between atoms: _430  and  _431
REMARK  175  A    between atoms: _436  and  _438
REMARK  176  A    between atoms: _438  and  _439
REMARK  177  A    between atoms: _438  and  _441
REMARK  178  A    between atoms: _444  and  _446
REMARK  179  A    between atoms: _446  and  _447
REMARK  180  A    between atoms: _446  and  _449
REMARK  181  A    between atoms: _449  and  _450
REMARK  182  A    between atoms: _453  and  _455
REMARK  183  A    between atoms: _455  and  _456
REMARK  184  A    between atoms: _455  and  _458
REMARK  185  A    between atoms: _458  and  _459
REMARK  186  A    between atoms: _461  and  _463
REMARK  187  A    between atoms: _463  and  _464
REMARK  188  A    between atoms: _466  and  _468
REMARK  189  A    between atoms: _468  and  _469
REMARK  190  A    between atoms: _468  and  _471
REMARK  191  A    between atoms: _471  and  _472
REMARK  192  A    between atoms: _472  and  _774
REMARK  193  A    between atoms: _473  and  _475
REMARK  194  A    between atoms: _475  and  _476
REMARK  195  A    between atoms: _475  and  _478
REMARK  196  A    between atoms: _478  and  _479
REMARK  197  A    between atoms: _484  and  _485
REMARK  198  A    between atoms: _487  and  _489
REMARK  199  A    between atoms: _489  and  _490
REMARK  200  A    between atoms: _489  and  _492
REMARK  201  A    between atoms: _492  and  _493
REMARK  202  A    between atoms: _493  and  _494
REMARK  203  A    between atoms: _499  and  _501
REMARK  204  A    between atoms: _501  and  _502
REMARK  205  A    between atoms: _501  and  _504
REMARK  206  A    between atoms: _504  and  _505
REMARK  207  A    between atoms: _505  and  _506
REMARK  208  A    between atoms: _511  and  _513
REMARK  209  A    between atoms: _513  and  _514
REMARK  210  A    between atoms: _513  and  _516
REMARK  211  A    between atoms: _516  and  _517
REMARK  212  A    between atoms: _522  and  _523
REMARK  213  A    between atoms: _525  and  _527
REMARK  214  A    between atoms: _527  and  _528
REMARK  215  A    between atoms: _531  and  _533
REMARK  216  A    between atoms: _533  and  _534
REMARK  217  A    between atoms: _533  and  _536
REMARK  218  A    between atoms: _536  and  _537
REMARK  219  A    between atoms: _542  and  _543
REMARK  220  A    between atoms: _545  and  _547
REMARK  221  A    between atoms: _547  and  _548
REMARK  222  A    between atoms: _547  and  _550
REMARK  223  A    between atoms: _550  and  _551
REMARK  224  A    between atoms: _556  and  _557
REMARK  225  A    between atoms: _559  and  _561
REMARK  226  A    between atoms: _561  and  _562
REMARK  227  A    between atoms: _561  and  _564
REMARK  228  A    between atoms: _564  and  _565
REMARK  229  A    between atoms: _568  and  _570
REMARK  230  A    between atoms: _570  and  _571
REMARK  231  A    between atoms: _574  and  _576
REMARK  232  A    between atoms: _576  and  _577
REMARK  233  A    between atoms: _580  and  _582
REMARK  234  A    between atoms: _582  and  _583
REMARK  235  A    between atoms: _582  and  _585
REMARK  236  A    between atoms: _585  and  _586
REMARK  237  A    between atoms: _589  and  _591
REMARK  238  A    between atoms: _591  and  _592
REMARK  239  A    between atoms: _591  and  _594
REMARK  240  A    between atoms: _594  and  _595
REMARK  241  A    between atoms: _598  and  _600
REMARK  242  A    between atoms: _600  and  _601
REMARK  243  A    between atoms: _600  and  _603
REMARK  244  A    between atoms: _603  and  _604
REMARK  245  A    between atoms: _607  and  _609
REMARK  246  A    between atoms: _609  and  _610
REMARK  247  A    between atoms: _609  and  _612
REMARK  248  A    between atoms: _612  and  _613
REMARK  249  A    between atoms: _613  and  _614
REMARK  250  A    between atoms: _614  and  _615
REMARK  251  A    between atoms: _615  and  _616
REMARK  252  A    between atoms: _620  and  _622
REMARK  253  A    between atoms: _622  and  _623
REMARK  254  A    between atoms: _622  and  _625
REMARK  255  A    between atoms: _625  and  _626
REMARK  256  A    between atoms: _631  and  _633
REMARK  257  A    between atoms: _633  and  _634
REMARK  258  A    between atoms: _633  and  _636
REMARK  259  A    between atoms: _636  and  _637
REMARK  260  A    between atoms: _637  and  _638
REMARK  261  A    between atoms: _638  and  _639
REMARK  262  A    between atoms: _639  and  _640
REMARK  263  A    between atoms: _644  and  _646
REMARK  264  A    between atoms: _646  and  _647
REMARK  265  A    between atoms: _646  and  _649
REMARK  266  A    between atoms: _649  and  _650
REMARK  267  A    between atoms: _660  and  _662
REMARK  268  A    between atoms: _662  and  _663
REMARK  269  A    between atoms: _666  and  _668
REMARK  270  A    between atoms: _668  and  _669
REMARK  271  A    between atoms: _671  and  _673
REMARK  272  A    between atoms: _673  and  _674
REMARK  273  A    between atoms: _673  and  _676
REMARK  274  A    between atoms: _676  and  _677
REMARK  275  A    between atoms: _677  and  _678
REMARK  276  A    between atoms: _681  and  _683
REMARK  277  A    between atoms: _683  and  _684
REMARK  278  A    between atoms: _687  and  _689
REMARK  279  A    between atoms: _689  and  _690
REMARK  280  A    between atoms: _689  and  _692
REMARK  281  A    between atoms: _692  and  _693
REMARK  282  A    between atoms: _693  and  _694
REMARK  283  A    between atoms: _694  and  _695
REMARK  284  A    between atoms: _704  and  _706
REMARK  285  A    between atoms: _706  and  _707
REMARK  286  A    between atoms: _706  and  _709
REMARK  287  A    between atoms: _709  and  _710
REMARK  288  A    between atoms: _713  and  _715
REMARK  289  A    between atoms: _715  and  _716
REMARK  290  A    between atoms: _715  and  _718
REMARK  291  A    between atoms: _718  and  _719
REMARK  292  A    between atoms: _719  and  _720
REMARK  293  A    between atoms: _720  and  _721
REMARK  294  A    between atoms: _730  and  _732
REMARK  295  A    between atoms: _732  and  _733
REMARK  296  A    between atoms: _736  and  _738
REMARK  297  A    between atoms: _738  and  _739
REMARK  298  A    between atoms: _738  and  _741
REMARK  299  A    between atoms: _741  and  _742
REMARK  300  A    between atoms: _747  and  _748
REMARK  301  A    between atoms: _750  and  _752
REMARK  302  A    between atoms: _752  and  _753
REMARK  303  A    between atoms: _752  and  _755
REMARK  304  A    between atoms: _755  and  _756
REMARK  305  A    between atoms: _759  and  _761
REMARK  306  A    between atoms: _761  and  _762
REMARK  307  A    between atoms: _761  and  _764
REMARK  308  A    between atoms: _764  and  _765
REMARK  309  A    between atoms: _768  and  _770
REMARK  310  A    between atoms: _770  and  _771
REMARK  311  A    between atoms: _770  and  _773
REMARK  312  A    between atoms: _773  and  _774
REMARK  313  A    between atoms: _775  and  _777
REMARK  314  A    between atoms: _777  and  _778
REMARK  315  A    between atoms: _777  and  _780
REMARK  316  A    between atoms: _783  and  _785
REMARK  317  A    between atoms: _785  and  _786
REMARK  318  A    between atoms: _785  and  _788
REMARK  319  A    between atoms: _788  and  _789
REMARK  320  A    between atoms: _789  and  _790
REMARK  321  A    between atoms: _793  and  _795
REMARK  322  A    between atoms: _795  and  _796
REMARK  323  A    between atoms: _795  and  _798
REMARK  324  A    between atoms: _798  and  _799
REMARK  325  A    between atoms: _809  and  _811
REMARK  326  A    between atoms: _811  and  _812
REMARK  327  A    between atoms: _811  and  _814
REMARK  328  A    between atoms: _814  and  _815
REMARK  329  A    between atoms: _818  and  _820
REMARK  330  A    between atoms: _820  and  _821
REMARK  331  A    between atoms: _820  and  _823
REMARK  332  A    between atoms: _823  and  _824
REMARK  333  A    between atoms: _829  and  _830
REMARK                            x       y       z     vdW  Elec       q    Type
REMARK                         _______ _______ _______ _____ _____    ______ ____
ROOT
ATOM      1  CA  MET A   1      -9.318 -13.831  29.732  0.00  0.00    +0.134 C 
ENDROOT
BRANCH   1   2
ATOM      2  N   MET A   1      -8.083 -14.578  29.482  0.00  0.00    -0.239 NA
ATOM      3  H   MET A   1      -7.426 -14.245  28.748  0.00  0.00    +0.142 HD
ENDBRANCH   1   2
BRANCH   1   4
ATOM      4  C   MET A   1     -10.586 -14.597  29.355  0.00  0.00    +0.224 C 
ATOM      5  O   MET A   1     -11.698 -14.154  29.665  0.00  0.00    -0.287 OA
ENDBRANCH   1   4
BRANCH   1   6
ATOM      6  CB  MET A   1      -9.287 -12.471  29.023  0.00  0.00    +0.037 C 
BRANCH   6   7
ATOM      7  CG  MET A   1      -8.655 -11.357  29.850  0.00  0.00    +0.059 C 
BRANCH   7   8
ATOM      8  SD  MET A   1      -9.629 -10.925  31.317  0.00  0.00    -0.139 S 
ATOM      9  CE  MET A   1     -11.163 -10.335  30.599  0.00  0.00    +0.069 C 
ENDBRANCH   7   8
ENDBRANCH   6   7
ENDBRANCH   1   6
TORSDOF 5
REMARK  Name = ../refined-set-2016/3p9l/3p9l_pocket.pdb
REMARK  333 active torsions:
REMARK  status: ('A' for Active; 'I' for Inactive)
REMARK    1  A    between atoms: _1  and  _3
REMARK    2  A    between atoms: _3  and  _4
REMARK    3  A    between atoms: _3  and  _6
REMARK    4  A    between atoms: _6  and  _7
REMARK    5  A    between atoms: _10  and  _12
REMARK    6  A    between atoms: _12  and  _13
REMARK    7  A    between atoms: _12  and  _15
REMARK    8  A    between atoms: _15  and  _16
REMARK    9  A    between atoms: _16  and  _17
REMARK   10  A    between atoms: _17  and  _18
REMARK   11  A    between atoms: _27  and  _29
REMARK   12  A    between atoms: _29  and  _30
REMARK   13  A    between atoms: _29  and  _32
REMARK   14  A    between atoms: _32  and  _33
REMARK   15  A    between atoms: _38  and  _39
REMARK   16  A    between atoms: _41  and  _43
REMARK   17  A    between atoms: _43  and  _44
REMARK   18  A    between atoms: _43  and  _46
REMARK   19  A    between atoms: _46  and  _47
REMARK   20  A    between atoms: _53  and  _55
REMARK   21  A    between atoms: _55  and  _56
REMARK   22  A    between atoms: _55  and  _58
REMARK   23  A    between atoms: _61  and  _63
REMARK   24  A    between atoms: _63  and  _64
REMARK   25  A    between atoms: _63  and  _66
REMARK   26  A    between atoms: _66  and  _67
REMARK   27  A    between atoms: _70  and  _72
REMARK   28  A    between atoms: _72  and  _73
REMARK   29  A    between atoms: _72  and  _75
REMARK   30  A    between atoms: _75  and  _76
REMARK   31  A    between atoms: _81  and  _82
REMARK   32  A    between atoms: _84  and  _86
REMARK   33  A    between atoms: _86  and  _87
REMARK   34  A    between atoms: _86  and  _89
REMARK   35  A    between atoms: _89  and  _90
REMARK   36  A    between atoms: _90  and  _91
REMARK   37  A    between atoms: _93  and  _95
REMARK   38  A    between atoms: _95  and  _96
REMARK   39  A    between atoms: _95  and  _98
REMARK   40  A    between atoms: _98  and  _99
REMARK   41  A    between atoms: _99  and  _100
REMARK   42  A    between atoms: _103  and  _105
REMARK   43  A    between atoms: _105  and  _106
REMARK   44  A    between atoms: _105  and  _108
REMARK   45  A    between atoms: _111  and  _113
REMARK   46  A    between atoms: _113  and  _114
REMARK   47  A    between atoms: _116  and  _118
REMARK   48  A    between atoms: _118  and  _119
REMARK   49  A    between atoms: _118  and  _121
REMARK   50  A    between atoms: _124  and  _126
REMARK   51  A    between atoms: _126  and  _127
REMARK   52  A    between atoms: _126  and  _129
REMARK   53  A    between atoms: _129  and  _130
REMARK   54  A    between atoms: _136  and  _138
REMARK   55  A    between atoms: _138  and  _139
REMARK   56  A    between atoms: _138  and  _141
REMARK   57  A    between atoms: _144  and  _146
REMARK   58  A    between atoms: _146  and  _147
REMARK   59  A    between atoms: _146  and  _149
REMARK   60  A    between atoms: _149  and  _150
REMARK   61  A    between atoms: _156  and  _158
REMARK   62  A    between atoms: _158  and  _159
REMARK   63  A    between atoms: _158  and  _161
REMARK   64  A    between atoms: _161  and  _162
REMARK   65  A    between atoms: _167  and  _168
REMARK   66  A    between atoms: _170  and  _172
REMARK   67  A    between atoms: _172  and  _173
REMARK   68  A    between atoms: _172  and  _175
REMARK   69  A    between atoms: _175  and  _176
REMARK   70  A    between atoms: _176  and  _177
REMARK   71  A    between atoms: _179  and  _181
REMARK   72  A    between atoms: _181  and  _182
REMARK   73  A    between atoms: _181  and  _184
REMARK   74  A    between atoms: _184  and  _185
REMARK   75  A    between atoms: _190  and  _191
REMARK   76  A    between atoms: _193  and  _195
REMARK   77  A    between atoms: _195  and  _196
REMARK   78  A    between atoms: _195  and  _198
REMARK   79  A    between atoms: _198  and  _199
REMARK   80  A    between atoms: _199  and  _200
REMARK   81  A    between atoms: _200  and  _201
REMARK   82  A    between atoms: _210  and  _212
REMARK   83  A    between atoms: _212  and  _213
REMARK   84  A    between atoms: _212  and  _215
REMARK   85  A    between atoms: _215  and  _216
REMARK   86  A    between atoms: _216  and  _217
REMARK   87  A    between atoms: _220  and  _222
REMARK   88  A    between atoms: _222  and  _223
REMARK   89  A    between atoms: _222  and  _225
REMARK   90  A    between atoms: _225  and  _226
REMARK   91  A    between atoms: _226  and  _227
REMARK   92  A    between atoms: _232  and  _234
REMARK   93  A    between atoms: _234  and  _235
REMARK   94  A    between atoms: _234  and  _237
REMARK   95  A    between atoms: _237  and  _238
REMARK   96  A    between atoms: _238  and  _239
REMARK   97  A    between atoms: _239  and  _240
REMARK   98  A    between atoms: _240  and  _241
REMARK   99  A    between atoms: _245  and  _247
REMARK  100  A    between atoms: _247  and  _248
REMARK  101  A    between atoms: _251  and  _253
REMARK  102  A    between atoms: _253  and  _254
REMARK  103  A    between atoms: _256  and  _258
REMARK  104  A    between atoms: _258  and  _259
REMARK  105  A    between atoms: _258  and  _261
REMARK  106  A    between atoms: _261  and  _262
REMARK  107  A    between atoms: _267  and  _269
REMARK  108  A    between atoms: _269  and  _270
REMARK  109  A    between atoms: _269  and  _272
REMARK  110  A    between atoms: _272  and  _273
REMARK  111  A    between atoms: _273  and  _274
REMARK  112  A    between atoms: _277  and  _279
REMARK  113  A    between atoms: _279  and  _280
REMARK  114  A    between atoms: _279  and  _282
REMARK  115  A    between atoms: _282  and  _283
REMARK  116  A    between atoms: _283  and  _284
REMARK  117  A    between atoms: _289  and  _291
REMARK  118  A    between atoms: _291  and  _292
REMARK  119  A    between atoms: _291  and  _294
REMARK  120  A    between atoms: _294  and  _295
REMARK  121  A    between atoms: _297  and  _299
REMARK  122  A    between atoms: _299  and  _300
REMARK  123  A    between atoms: _299  and  _302
REMARK  124  A    between atoms: _302  and  _303
REMARK  125  A    between atoms: _309  and  _311
REMARK  126  A    between atoms: _311  and  _312
REMARK  127  A    between atoms: _311  and  _314
REMARK  128  A    between atoms: _314  and  _315
REMARK  129  A    between atoms: _315  and  _316
REMARK  130  A    between atoms: _316  and  _317
REMARK  131  A    between atoms: _326  and  _328
REMARK  132  A    between atoms: _328  and  _329
REMARK  133  A    between atoms: _328  and  _331
REMARK  134  A    between atoms: _334  and  _336
REMARK  135  A    between atoms: _336  and  _337
REMARK  136  A    between atoms: _336  and  _339
REMARK  137  A    between atoms: _339  and  _340
REMARK  138  A    between atoms: _343  and  _345
REMARK  139  A    between atoms: _345  and  _346
REMARK  140  A    between atoms: _345  and  _348
REMARK  141  A    between atoms: _348  and  _349
REMARK  142  A    between atoms: _352  and  _354
REMARK  143  A    between atoms: _354  and  _355
REMARK  144  A    between atoms: _354  and  _357
REMARK  145  A    between atoms: _357  and  _358
REMARK  146  A    between atoms: _358  and  _359
REMARK  147  A    between atoms: _359  and  _360
REMARK  148  A    between atoms: _369  and  _371
REMARK  149  A    between atoms: _371  and  _372
REMARK  150  A    between atoms: _371  and  _374
REMARK  151  A    between atoms: _374  and  _375
REMARK  152  A    between atoms: _378  and  _380
REMARK  153  A    between atoms: _380  and  _381
REMARK  154  A    between atoms: _380  and  _383
REMARK  155  A    between atoms: _383  and  _384
REMARK  156  A    between atoms: _387  and  _389
REMARK  157  A    between atoms: _389  and  _390
REMARK  158  A    between atoms: _389  and  _392
REMARK  159  A    between atoms: _392  and  _393
REMARK  160  A    between atoms: _398  and  _399
REMARK  161  A    between atoms: _401  and  _403
REMARK  162  A    between atoms: _403  and  _404
REMARK  163  A    between atoms: _403  and  _406
REMARK  164  A    between atoms: _406  and  _407
REMARK  165  A    between atoms: _412  and  _413
REMARK  166  A    between atoms: _415  and  _417
REMARK  167  A    between atoms: _417  and  _418
REMARK  168  A    between atoms: _417  and  _420
REMARK  169  A    between atoms: _420  and  _421
REMARK  170  A    between atoms: _424  and  _426
REMARK  171  A    between atoms: _426  and  _427
REMARK  172  A    between atoms: _426  and  _429
REMARK  173  A    between atoms: _429  and  _430
REMARK  174  A    between atoms: _430  and  _431
REMARK  175  A    between atoms: _436  and  _438
REMARK  176  A    between atoms: _438  and  _439
REMARK  177  A    between atoms: _438  and  _441
REMARK  178  A    between atoms: _444  and  _446
REMARK  179  A    between atoms: _446  and  _447
REMARK  180  A    between atoms: _446  and  _449
REMARK  181  A    between atoms: _449  and  _450
REMARK  182  A    between atoms: _453  and  _455
REMARK  183  A    between atoms: _455  and  _456
REMARK  184  A    between atoms: _455  and  _458
REMARK  185  A    between atoms: _458  and  _459
REMARK  186  A    between atoms: _461  and  _463
REMARK  187  A    between atoms: _463  and  _464
REMARK  188  A    between atoms: _466  and  _468
REMARK  189  A    between atoms: _468  and  _469
REMARK  190  A    between atoms: _468  and  _471
REMARK  191  A    between atoms: _471  and  _472
REMARK  192  A    between atoms: _472  and  _774
REMARK  193  A    between atoms: _473  and  _475
REMARK  194  A    between atoms: _475  and  _476
REMARK  195  A    between atoms: _475  and  _478
REMARK  196  A    between atoms: _478  and  _479
REMARK  197  A    between atoms: _484  and  _485
REMARK  198  A    between atoms: _487  and  _489
REMARK  199  A    between atoms: _489  and  _490
REMARK  200  A    between atoms: _489  and  _492
REMARK  201  A    between atoms: _492  and  _493
REMARK  202  A    between atoms: _493  and  _494
REMARK  203  A    between atoms: _499  and  _501
REMARK  204  A    between atoms: _501  and  _502
REMARK  205  A    between atoms: _501  and  _504
REMARK  206  A    between atoms: _504  and  _505
REMARK  207  A    between atoms: _505  and  _506
REMARK  208  A    between atoms: _511  and  _513
REMARK  209  A    between atoms: _513  and  _514
REMARK  210  A    between atoms: _513  and  _516
REMARK  211  A    between atoms: _516  and  _517
REMARK  212  A    between atoms: _522  and  _523
REMARK  213  A    between atoms: _525  and  _527
REMARK  214  A    between atoms: _527  and  _528
REMARK  215  A    between atoms: _531  and  _533
REMARK  216  A    between atoms: _533  and  _534
REMARK  217  A    between atoms: _533  and  _536
REMARK  218  A    between atoms: _536  and  _537
REMARK  219  A    between atoms: _542  and  _543
REMARK  220  A    between atoms: _545  and  _547
REMARK  221  A    between atoms: _547  and  _548
REMARK  222  A    between atoms: _547  and  _550
REMARK  223  A    between atoms: _550  and  _551
REMARK  224  A    between atoms: _556  and  _557
REMARK  225  A    between atoms: _559  and  _561
REMARK  226  A    between atoms: _561  and  _562
REMARK  227  A    between atoms: _561  and  _564
REMARK  228  A    between atoms: _564  and  _565
REMARK  229  A    between atoms: _568  and  _570
REMARK  230  A    between atoms: _570  and  _571
REMARK  231  A    between atoms: _574  and  _576
REMARK  232  A    between atoms: _576  and  _577
REMARK  233  A    between atoms: _580  and  _582
REMARK  234  A    between atoms: _582  and  _583
REMARK  235  A    between atoms: _582  and  _585
REMARK  236  A    between atoms: _585  and  _586
REMARK  237  A    between atoms: _589  and  _591
REMARK  238  A    between atoms: _591  and  _592
REMARK  239  A    between atoms: _591  and  _594
REMARK  240  A    between atoms: _594  and  _595
REMARK  241  A    between atoms: _598  and  _600
REMARK  242  A    between atoms: _600  and  _601
REMARK  243  A    between atoms: _600  and  _603
REMARK  244  A    between atoms: _603  and  _604
REMARK  245  A    between atoms: _607  and  _609
REMARK  246  A    between atoms: _609  and  _610
REMARK  247  A    between atoms: _609  and  _612
REMARK  248  A    between atoms: _612  and  _613
REMARK  249  A    between atoms: _613  and  _614
REMARK  250  A    between atoms: _614  and  _615
REMARK  251  A    between atoms: _615  and  _616
REMARK  252  A    between atoms: _620  and  _622
REMARK  253  A    between atoms: _622  and  _623
REMARK  254  A    between atoms: _622  and  _625
REMARK  255  A    between atoms: _625  and  _626
REMARK  256  A    between atoms: _631  and  _633
REMARK  257  A    between atoms: _633  and  _634
REMARK  258  A    between atoms: _633  and  _636
REMARK  259  A    between atoms: _636  and  _637
REMARK  260  A    between atoms: _637  and  _638
REMARK  261  A    between atoms: _638  and  _639
REMARK  262  A    between atoms: _639  and  _640
REMARK  263  A    between atoms: _644  and  _646
REMARK  264  A    between atoms: _646  and  _647
REMARK  265  A    between atoms: _646  and  _649
REMARK  266  A    between atoms: _649  and  _650
REMARK  267  A    between atoms: _660  and  _662
REMARK  268  A    between atoms: _662  and  _663
REMARK  269  A    between atoms: _666  and  _668
REMARK  270  A    between atoms: _668  and  _669
REMARK  271  A    between atoms: _671  and  _673
REMARK  272  A    between atoms: _673  and  _674
REMARK  273  A    between atoms: _673  and  _676
REMARK  274  A    between atoms: _676  and  _677
REMARK  275  A    between atoms: _677  and  _678
REMARK  276  A    between atoms: _681  and  _683
REMARK  277  A    between atoms: _683  and  _684
REMARK  278  A    between atoms: _687  and  _689
REMARK  279  A    between atoms: _689  and  _690
REMARK  280  A    between atoms: _689  and  _692
REMARK  281  A    between atoms: _692  and  _693
REMARK  282  A    between atoms: _693  and  _694
REMARK  283  A    between atoms: _694  and  _695
REMARK  284  A    between atoms: _704  and  _706
REMARK  285  A    between atoms: _706  and  _707
REMARK  286  A    between atoms: _706  and  _709
REMARK  287  A    between atoms: _709  and  _710
REMARK  288  A    between atoms: _713  and  _715
REMARK  289  A    between atoms: _715  and  _716
REMARK  290  A    between atoms: _715  and  _718
REMARK  291  A    between atoms: _718  and  _719
REMARK  292  A    between atoms: _719  and  _720
REMARK  293  A    between atoms: _720  and  _721
REMARK  294  A    between atoms: _730  and  _732
REMARK  295  A    between atoms: _732  and  _733
REMARK  296  A    between atoms: _736  and  _738
REMARK  297  A    between atoms: _738  and  _739
REMARK  298  A    between atoms: _738  and  _741
REMARK  299  A    between atoms: _741  and  _742
REMARK  300  A    between atoms: _747  and  _748
REMARK  301  A    between atoms: _750  and  _752
REMARK  302  A    between atoms: _752  and  _753
REMARK  303  A    between atoms: _752  and  _755
REMARK  304  A    between atoms: _755  and  _756
REMARK  305  A    between atoms: _759  and  _761
REMARK  306  A    between atoms: _761  and  _762
REMARK  307  A    between atoms: _761  and  _764
REMARK  308  A    between atoms: _764  and  _765
REMARK  309  A    between atoms: _768  and  _770
REMARK  310  A    between atoms: _770  and  _771
REMARK  311  A    between atoms: _770  and  _773
REMARK  312  A    between atoms: _773  and  _774
REMARK  313  A    between atoms: _775  and  _777
REMARK  314  A    between atoms: _777  and  _778
REMARK  315  A    between atoms: _777  and  _780
REMARK  316  A    between atoms: _783  and  _785
REMARK  317  A    between atoms: _785  and  _786
REMARK  318  A    between atoms: _785  and  _788
REMARK  319  A    between atoms: _788  and  _789
REMARK  320  A    between atoms: _789  and  _790
REMARK  321  A    between atoms: _793  and  _795
REMARK  322  A    between atoms: _795  and  _796
REMARK  323  A    between atoms: _795  and  _798
REMARK  324  A    between atoms: _798  and  _799
REMARK  325  A    between atoms: _809  and  _811
REMARK  326  A    between atoms: _811  and  _812
REMARK  327  A    between atoms: _811  and  _814
REMARK  328  A    between atoms: _814  and  _815
REMARK  329  A    between atoms: _818  and  _820
REMARK  330  A    between atoms: _820  and  _821
REMARK  331  A    between atoms: _820  and  _823
REMARK  332  A    between atoms: _823  and  _824
REMARK  333  A    between atoms: _829  and  _830
REMARK                            x       y       z     vdW  Elec       q    Type
REMARK                         _______ _______ _______ _____ _____    ______ ____
ROOT
ATOM      1  CG  TYR A   1     -16.199  -9.922  32.100  0.00  0.00    -0.020 A 
ATOM      2  CD2 TYR A   1     -15.768  -9.157  33.181  0.00  0.00    -0.001 A 
ATOM      3  CE2 TYR A   1     -14.710  -8.264  33.053  0.00  0.00    +0.036 A 
ATOM      4  CZ  TYR A   1     -14.070  -8.133  31.833  0.00  0.00    +0.134 A 
ATOM      5  CE1 TYR A   1     -14.482  -8.882  30.755  0.00  0.00    +0.036 A 
ATOM      6  CD1 TYR A   1     -15.540  -9.767  30.891  0.00  0.00    -0.001 A 
ENDROOT
BRANCH   4   7
ATOM      7  OH  TYR A   1     -13.016  -7.248  31.683  0.00  0.00    -0.506 OA
ATOM      8  HH  TYR A   1     -12.845  -6.791  32.544  0.00  0.00    +0.292 HD
ENDBRANCH   4   7
BRANCH   1   9
ATOM      9  CB  TYR A   1     -17.347 -10.904  32.242  0.00  0.00    +0.051 C 
BRANCH   9  10
ATOM     10  CA  TYR A   1     -18.733 -10.289  32.058  0.00  0.00    +0.137 C 
BRANCH  10  11
ATOM     11  N   TYR A   1     -19.753 -11.324  32.118  0.00  0.00    -0.239 NA
ATOM     12  H   TYR A   1     -19.464 -12.323  32.118  0.00  0.00    +0.142 HD
ENDBRANCH  10  11
BRANCH  10  13
ATOM     13  C   TYR A   1     -18.794  -9.565  30.719  0.00  0.00    +0.224 C 
ATOM     14  O   TYR A   1     -18.856  -8.342  30.667  0.00  0.00    -0.287 OA
ENDBRANCH  10  13
ENDBRANCH   9  10
ENDBRANCH   1   9
TORSDOF 5
REMARK  Name = ../refined-set-2016/3p9l/3p9l_pocket.pdb
REMARK  333 active torsions:
REMARK  status: ('A' for Active; 'I' for Inactive)
REMARK    1  A    between atoms: _1  and  _3
REMARK    2  A    between atoms: _3  and  _4
REMARK    3  A    between atoms: _3  and  _6
REMARK    4  A    between atoms: _6  and  _7
REMARK    5  A    between atoms: _10  and  _12
REMARK    6  A    between atoms: _12  and  _13
REMARK    7  A    between atoms: _12  and  _15
REMARK    8  A    between atoms: _15  and  _16
REMARK    9  A    between atoms: _16  and  _17
REMARK   10  A    between atoms: _17  and  _18
REMARK   11  A    between atoms: _27  and  _29
REMARK   12  A    between atoms: _29  and  _30
REMARK   13  A    between atoms: _29  and  _32
REMARK   14  A    between atoms: _32  and  _33
REMARK   15  A    between atoms: _38  and  _39
REMARK   16  A    between atoms: _41  and  _43
REMARK   17  A    between atoms: _43  and  _44
REMARK   18  A    between atoms: _43  and  _46
REMARK   19  A    between atoms: _46  and  _47
REMARK   20  A    between atoms: _53  and  _55
REMARK   21  A    between atoms: _55  and  _56
REMARK   22  A    between atoms: _55  and  _58
REMARK   23  A    between atoms: _61  and  _63
REMARK   24  A    between atoms: _63  and  _64
REMARK   25  A    between atoms: _63  and  _66
REMARK   26  A    between atoms: _66  and  _67
REMARK   27  A    between atoms: _70  and  _72
REMARK   28  A    between atoms: _72  and  _73
REMARK   29  A    between atoms: _72  and  _75
REMARK   30  A    between atoms: _75  and  _76
REMARK   31  A    between atoms: _81  and  _82
REMARK   32  A    between atoms: _84  and  _86
REMARK   33  A    between atoms: _86  and  _87
REMARK   34  A    between atoms: _86  and  _89
REMARK   35  A    between atoms: _89  and  _90
REMARK   36  A    between atoms: _90  and  _91
REMARK   37  A    between atoms: _93  and  _95
REMARK   38  A    between atoms: _95  and  _96
REMARK   39  A    between atoms: _95  and  _98
REMARK   40  A    between atoms: _98  and  _99
REMARK   41  A    between atoms: _99  and  _100
REMARK   42  A    between atoms: _103  and  _105
REMARK   43  A    between atoms: _105  and  _106
REMARK   44  A    between atoms: _105  and  _108
REMARK   45  A    between atoms: _111  and  _113
REMARK   46  A    between atoms: _113  and  _114
REMARK   47  A    between atoms: _116  and  _118
REMARK   48  A    between atoms: _118  and  _119
REMARK   49  A    between atoms: _118  and  _121
REMARK   50  A    between atoms: _124  and  _126
REMARK   51  A    between atoms: _126  and  _127
REMARK   52  A    between atoms: _126  and  _129
REMARK   53  A    between atoms: _129  and  _130
REMARK   54  A    between atoms: _136  and  _138
REMARK   55  A    between atoms: _138  and  _139
REMARK   56  A    between atoms: _138  and  _141
REMARK   57  A    between atoms: _144  and  _146
REMARK   58  A    between atoms: _146  and  _147
REMARK   59  A    between atoms: _146  and  _149
REMARK   60  A    between atoms: _149  and  _150
REMARK   61  A    between atoms: _156  and  _158
REMARK   62  A    between atoms: _158  and  _159
REMARK   63  A    between atoms: _158  and  _161
REMARK   64  A    between atoms: _161  and  _162
REMARK   65  A    between atoms: _167  and  _168
REMARK   66  A    between atoms: _170  and  _172
REMARK   67  A    between atoms: _172  and  _173
REMARK   68  A    between atoms: _172  and  _175
REMARK   69  A    between atoms: _175  and  _176
REMARK   70  A    between atoms: _176  and  _177
REMARK   71  A    between atoms: _179  and  _181
REMARK   72  A    between atoms: _181  and  _182
REMARK   73  A    between atoms: _181  and  _184
REMARK   74  A    between atoms: _184  and  _185
REMARK   75  A    between atoms: _190  and  _191
REMARK   76  A    between atoms: _193  and  _195
REMARK   77  A    between atoms: _195  and  _196
REMARK   78  A    between atoms: _195  and  _198
REMARK   79  A    between atoms: _198  and  _199
REMARK   80  A    between atoms: _199  and  _200
REMARK   81  A    between atoms: _200  and  _201
REMARK   82  A    between atoms: _210  and  _212
REMARK   83  A    between atoms: _212  and  _213
REMARK   84  A    between atoms: _212  and  _215
REMARK   85  A    between atoms: _215  and  _216
REMARK   86  A    between atoms: _216  and  _217
REMARK   87  A    between atoms: _220  and  _222
REMARK   88  A    between atoms: _222  and  _223
REMARK   89  A    between atoms: _222  and  _225
REMARK   90  A    between atoms: _225  and  _226
REMARK   91  A    between atoms: _226  and  _227
REMARK   92  A    between atoms: _232  and  _234
REMARK   93  A    between atoms: _234  and  _235
REMARK   94  A    between atoms: _234  and  _237
REMARK   95  A    between atoms: _237  and  _238
REMARK   96  A    between atoms: _238  and  _239
REMARK   97  A    between atoms: _239  and  _240
REMARK   98  A    between atoms: _240  and  _241
REMARK   99  A    between atoms: _245  and  _247
REMARK  100  A    between atoms: _247  and  _248
REMARK  101  A    between atoms: _251  and  _253
REMARK  102  A    between atoms: _253  and  _254
REMARK  103  A    between atoms: _256  and  _258
REMARK  104  A    between atoms: _258  and  _259
REMARK  105  A    between atoms: _258  and  _261
REMARK  106  A    between atoms: _261  and  _262
REMARK  107  A    between atoms: _267  and  _269
REMARK  108  A    between atoms: _269  and  _270
REMARK  109  A    between atoms: _269  and  _272
REMARK  110  A    between atoms: _272  and  _273
REMARK  111  A    between atoms: _273  and  _274
REMARK  112  A    between atoms: _277  and  _279
REMARK  113  A    between atoms: _279  and  _280
REMARK  114  A    between atoms: _279  and  _282
REMARK  115  A    between atoms: _282  and  _283
REMARK  116  A    between atoms: _283  and  _284
REMARK  117  A    between atoms: _289  and  _291
REMARK  118  A    between atoms: _291  and  _292
REMARK  119  A    between atoms: _291  and  _294
REMARK  120  A    between atoms: _294  and  _295
REMARK  121  A    between atoms: _297  and  _299
REMARK  122  A    between atoms: _299  and  _300
REMARK  123  A    between atoms: _299  and  _302
REMARK  124  A    between atoms: _302  and  _303
REMARK  125  A    between atoms: _309  and  _311
REMARK  126  A    between atoms: _311  and  _312
REMARK  127  A    between atoms: _311  and  _314
REMARK  128  A    between atoms: _314  and  _315
REMARK  129  A    between atoms: _315  and  _316
REMARK  130  A    between atoms: _316  and  _317
REMARK  131  A    between atoms: _326  and  _328
REMARK  132  A    between atoms: _328  and  _329
REMARK  133  A    between atoms: _328  and  _331
REMARK  134  A    between atoms: _334  and  _336
REMARK  135  A    between atoms: _336  and  _337
REMARK  136  A    between atoms: _336  and  _339
REMARK  137  A    between atoms: _339  and  _340
REMARK  138  A    between atoms: _343  and  _345
REMARK  139  A    between atoms: _345  and  _346
REMARK  140  A    between atoms: _345  and  _348
REMARK  141  A    between atoms: _348  and  _349
REMARK  142  A    between atoms: _352  and  _354
REMARK  143  A    between atoms: _354  and  _355
REMARK  144  A    between atoms: _354  and  _357
REMARK  145  A    between atoms: _357  and  _358
REMARK  146  A    between atoms: _358  and  _359
REMARK  147  A    between atoms: _359  and  _360
REMARK  148  A    between atoms: _369  and  _371
REMARK  149  A    between atoms: _371  and  _372
REMARK  150  A    between atoms: _371  and  _374
REMARK  151  A    between atoms: _374  and  _375
REMARK  152  A    between atoms: _378  and  _380
REMARK  153  A    between atoms: _380  and  _381
REMARK  154  A    between atoms: _380  and  _383
REMARK  155  A    between atoms: _383  and  _384
REMARK  156  A    between atoms: _387  and  _389
REMARK  157  A    between atoms: _389  and  _390
REMARK  158  A    between atoms: _389  and  _392
REMARK  159  A    between atoms: _392  and  _393
REMARK  160  A    between atoms: _398  and  _399
REMARK  161  A    between atoms: _401  and  _403
REMARK  162  A    between atoms: _403  and  _404
REMARK  163  A    between atoms: _403  and  _406
REMARK  164  A    between atoms: _406  and  _407
REMARK  165  A    between atoms: _412  and  _413
REMARK  166  A    between atoms: _415  and  _417
REMARK  167  A    between atoms: _417  and  _418
REMARK  168  A    between atoms: _417  and  _420
REMARK  169  A    between atoms: _420  and  _421
REMARK  170  A    between atoms: _424  and  _426
REMARK  171  A    between atoms: _426  and  _427
REMARK  172  A    between atoms: _426  and  _429
REMARK  173  A    between atoms: _429  and  _430
REMARK  174  A    between atoms: _430  and  _431
REMARK  175  A    between atoms: _436  and  _438
REMARK  176  A    between atoms: _438  and  _439
REMARK  177  A    between atoms: _438  and  _441
REMARK  178  A    between atoms: _444  and  _446
REMARK  179  A    between atoms: _446  and  _447
REMARK  180  A    between atoms: _446  and  _449
REMARK  181  A    between atoms: _449  and  _450
REMARK  182  A    between atoms: _453  and  _455
REMARK  183  A    between atoms: _455  and  _456
REMARK  184  A    between atoms: _455  and  _458
REMARK  185  A    between atoms: _458  and  _459
REMARK  186  A    between atoms: _461  and  _463
REMARK  187  A    between atoms: _463  and  _464
REMARK  188  A    between atoms: _466  and  _468
REMARK  189  A    between atoms: _468  and  _469
REMARK  190  A    between atoms: _468  and  _471
REMARK  191  A    between atoms: _471  and  _472
REMARK  192  A    between atoms: _472  and  _774
REMARK  193  A    between atoms: _473  and  _475
REMARK  194  A    between atoms: _475  and  _476
REMARK  195  A    between atoms: _475  and  _478
REMARK  196  A    between atoms: _478  and  _479
REMARK  197  A    between atoms: _484  and  _485
REMARK  198  A    between atoms: _487  and  _489
REMARK  199  A    between atoms: _489  and  _490
REMARK  200  A    between atoms: _489  and  _492
REMARK  201  A    between atoms: _492  and  _493
REMARK  202  A    between atoms: _493  and  _494
REMARK  203  A    between atoms: _499  and  _501
REMARK  204  A    between atoms: _501  and  _502
REMARK  205  A    between atoms: _501  and  _504
REMARK  206  A    between atoms: _504  and  _505
REMARK  207  A    between atoms: _505  and  _506
REMARK  208  A    between atoms: _511  and  _513
REMARK  209  A    between atoms: _513  and  _514
REMARK  210  A    between atoms: _513  and  _516
REMARK  211  A    between atoms: _516  and  _517
REMARK  212  A    between atoms: _522  and  _523
REMARK  213  A    between atoms: _525  and  _527
REMARK  214  A    between atoms: _527  and  _528
REMARK  215  A    between atoms: _531  and  _533
REMARK  216  A    between atoms: _533  and  _534
REMARK  217  A    between atoms: _533  and  _536
REMARK  218  A    between atoms: _536  and  _537
REMARK  219  A    between atoms: _542  and  _543
REMARK  220  A    between atoms: _545  and  _547
REMARK  221  A    between atoms: _547  and  _548
REMARK  222  A    between atoms: _547  and  _550
REMARK  223  A    between atoms: _550  and  _551
REMARK  224  A    between atoms: _556  and  _557
REMARK  225  A    between atoms: _559  and  _561
REMARK  226  A    between atoms: _561  and  _562
REMARK  227  A    between atoms: _561  and  _564
REMARK  228  A    between atoms: _564  and  _565
REMARK  229  A    between atoms: _568  and  _570
REMARK  230  A    between atoms: _570  and  _571
REMARK  231  A    between atoms: _574  and  _576
REMARK  232  A    between atoms: _576  and  _577
REMARK  233  A    between atoms: _580  and  _582
REMARK  234  A    between atoms: _582  and  _583
REMARK  235  A    between atoms: _582  and  _585
REMARK  236  A    between atoms: _585  and  _586
REMARK  237  A    between atoms: _589  and  _591
REMARK  238  A    between atoms: _591  and  _592
REMARK  239  A    between atoms: _591  and  _594
REMARK  240  A    between atoms: _594  and  _595
REMARK  241  A    between atoms: _598  and  _600
REMARK  242  A    between atoms: _600  and  _601
REMARK  243  A    between atoms: _600  and  _603
REMARK  244  A    between atoms: _603  and  _604
REMARK  245  A    between atoms: _607  and  _609
REMARK  246  A    between atoms: _609  and  _610
REMARK  247  A    between atoms: _609  and  _612
REMARK  248  A    between atoms: _612  and  _613
REMARK  249  A    between atoms: _613  and  _614
REMARK  250  A    between atoms: _614  and  _615
REMARK  251  A    between atoms: _615  and  _616
REMARK  252  A    between atoms: _620  and  _622
REMARK  253  A    between atoms: _622  and  _623
REMARK  254  A    between atoms: _622  and  _625
REMARK  255  A    between atoms: _625  and  _626
REMARK  256  A    between atoms: _631  and  _633
REMARK  257  A    between atoms: _633  and  _634
REMARK  258  A    between atoms: _633  and  _636
REMARK  259  A    between atoms: _636  and  _637
REMARK  260  A    between atoms: _637  and  _638
REMARK  261  A    between atoms: _638  and  _639
REMARK  262  A    between atoms: _639  and  _640
REMARK  263  A    between atoms: _644  and  _646
REMARK  264  A    between atoms: _646  and  _647
REMARK  265  A    between atoms: _646  and  _649
REMARK  266  A    between atoms: _649  and  _650
REMARK  267  A    between atoms: _660  and  _662
REMARK  268  A    between atoms: _662  and  _663
REMARK  269  A    between atoms: _666  and  _668
REMARK  270  A    between atoms: _668  and  _669
REMARK  271  A    between atoms: _671  and  _673
REMARK  272  A    between atoms: _673  and  _674
REMARK  273  A    between atoms: _673  and  _676
REMARK  274  A    between atoms: _676  and  _677
REMARK  275  A    between atoms: _677  and  _678
REMARK  276  A    between atoms: _681  and  _683
REMARK  277  A    between atoms: _683  and  _684
REMARK  278  A    between atoms: _687  and  _689
REMARK  279  A    between atoms: _689  and  _690
REMARK  280  A    between atoms: _689  and  _692
REMARK  281  A    between atoms: _692  and  _693
REMARK  282  A    between atoms: _693  and  _694
REMARK  283  A    between atoms: _694  and  _695
REMARK  284  A    between atoms: _704  and  _706
REMARK  285  A    between atoms: _706  and  _707
REMARK  286  A    between atoms: _706  and  _709
REMARK  287  A    between atoms: _709  and  _710
REMARK  288  A    between atoms: _713  and  _715
REMARK  289  A    between atoms: _715  and  _716
REMARK  290  A    between atoms: _715  and  _718
REMARK  291  A    between atoms: _718  and  _719
REMARK  292  A    between atoms: _719  and  _720
REMARK  293  A    between atoms: _720  and  _721
REMARK  294  A    between atoms: _730  and  _732
REMARK  295  A    between atoms: _732  and  _733
REMARK  296  A    between atoms: _736  and  _738
REMARK  297  A    between atoms: _738  and  _739
REMARK  298  A    between atoms: _738  and  _741
REMARK  299  A    between atoms: _741  and  _742
REMARK  300  A    between atoms: _747  and  _748
REMARK  301  A    between atoms: _750  and  _752
REMARK  302  A    between atoms: _752  and  _753
REMARK  303  A    between atoms: _752  and  _755
REMARK  304  A    between atoms: _755  and  _756
REMARK  305  A    between atoms: _759  and  _761
REMARK  306  A    between atoms: _761  and  _762
REMARK  307  A    between atoms: _761  and  _764
REMARK  308  A    between atoms: _764  and  _765
REMARK  309  A    between atoms: _768  and  _770
REMARK  310  A    between atoms: _770  and  _771
REMARK  311  A    between atoms: _770  and  _773
REMARK  312  A    between atoms: _773  and  _774
REMARK  313  A    between atoms: _775  and  _777
REMARK  314  A    between atoms: _777  and  _778
REMARK  315  A    between atoms: _777  and  _780
REMARK  316  A    between atoms: _783  and  _785
REMARK  317  A    between atoms: _785  and  _786
REMARK  318  A    between atoms: _785  and  _788
REMARK  319  A    between atoms: _788  and  _789
REMARK  320  A    between atoms: _789  and  _790
REMARK  321  A    between atoms: _793  and  _795
REMARK  322  A    between atoms: _795  and  _796
REMARK  323  A    between atoms: _795  and  _798
REMARK  324  A    between atoms: _798  and  _799
REMARK  325  A    between atoms: _809  and  _811
REMARK  326  A    between atoms: _811  and  _812
REMARK  327  A    between atoms: _811  and  _814
REMARK  328  A    between atoms: _814  and  _815
REMARK  329  A    between atoms: _818  and  _820
REMARK  330  A    between atoms: _820  and  _821
REMARK  331  A    between atoms: _820  and  _823
REMARK  332  A    between atoms: _823  and  _824
REMARK  333  A    between atoms: _829  and  _830
REMARK                            x       y       z     vdW  Elec       q    Type
REMARK                         _______ _______ _______ _____ _____    ______ ____
ROOT
ATOM      1  CA  ARG A   1     -21.892  -6.162  30.998  0.00  0.00    +0.145 C 
ENDROOT
BRANCH   1   2
ATOM      2  C   ARG A   1     -20.876  -5.208  30.381  0.00  0.00    +0.238 C 
ATOM      3  O   ARG A   1     -21.176  -4.035  30.169  0.00  0.00    -0.274 OA
ATOM      4  N   GLU A   2     -19.677  -5.713  30.094  0.00  0.00    -0.298 N 
ATOM      5  H   GLU A   2     -19.480  -6.713  30.299  0.00  0.00    +0.150 HD
BRANCH   4   6
ATOM      6  CA  GLU A   2     -18.634  -4.881  29.494  0.00  0.00    +0.137 C 
BRANCH   6   7
ATOM      7  C   GLU A   2     -19.075  -4.346  28.129  0.00  0.00    +0.227 C 
ATOM      8  O   GLU A   2     -18.833  -3.183  27.790  0.00  0.00    -0.286 OA
ENDBRANCH   6   7
BRANCH   6   9
ATOM      9  CB  GLU A   2     -17.304  -5.641  29.383  0.00  0.00    +0.039 C 
BRANCH   9  10
ATOM     10  CG  GLU A   2     -16.628  -5.930  30.737  0.00  0.00    +0.116 C 
BRANCH  10  11
ATOM     11  CD  GLU A   2     -16.437  -4.685  31.603  0.00  0.00    +0.365 C 
ATOM     12  OE2 GLU A   2     -16.470  -4.818  32.845  0.00  0.00    -0.246 OA
ATOM     13  OE1 GLU A   2     -16.251  -3.575  31.058  0.00  0.00    -0.246 OA
ENDBRANCH  10  11
ENDBRANCH   9  10
ENDBRANCH   6   9
ENDBRANCH   4   6
ENDBRANCH   1   2
BRANCH   1  14
ATOM     14  N   ARG A   1     -21.959  -7.389  30.223  0.00  0.00    -0.238 NA
ATOM     15  H   ARG A   1     -21.742  -8.294  30.687  0.00  0.00    +0.142 HD
ENDBRANCH   1  14
BRANCH   1  16
ATOM     16  CB  ARG A   1     -21.529  -6.470  32.457  0.00  0.00    +0.030 C 
BRANCH  16  17
ATOM     17  CG  ARG A   1     -21.648  -5.284  33.398  0.00  0.00    +0.045 C 
BRANCH  17  18
ATOM     18  CD  ARG A   1     -21.309  -5.701  34.818  0.00  0.00    +0.174 C 
BRANCH  18  19
ATOM     19  NE  ARG A   1     -20.136  -6.562  34.835  0.00  0.00    -0.265 N 
ATOM     20  HE  ARG A   1     -20.246  -7.538  35.176  0.00  0.00    +0.259 HD
ATOM     21  CZ  ARG A   1     -18.931  -6.164  34.437  0.00  0.00    +0.342 C 
ATOM     22  NH2 ARG A   1     -17.905  -6.999  34.466  0.00  0.00    -0.292 N 
ATOM     23 HH21 ARG A   1     -18.038  -7.974  34.802  0.00  0.00    +0.255 HD
ATOM     24 HH22 ARG A   1     -16.966  -6.680  34.153  0.00  0.00    +0.255 HD
ATOM     25  NH1 ARG A   1     -18.756  -4.924  34.005  0.00  0.00    -0.292 N 
ATOM     26 HH11 ARG A   1     -19.560  -4.265  33.978  0.00  0.00    +0.255 HD
ATOM     27 HH12 ARG A   1     -17.815  -4.610  33.693  0.00  0.00    +0.255 HD
ENDBRANCH  18  19
ENDBRANCH  17  18
ENDBRANCH  16  17
ENDBRANCH   1  16
TORSDOF 11
REMARK  Name = ../refined-set-2016/3p9l/3p9l_pocket.pdb
REMARK  333 active torsions:
REMARK  status: ('A' for Active; 'I' for Inactive)
REMARK    1  A    between atoms: _1  and  _3
REMARK    2  A    between atoms: _3  and  _4
REMARK    3  A    between atoms: _3  and  _6
REMARK    4  A    between atoms: _6  and  _7
REMARK    5  A    between atoms: _10  and  _12
REMARK    6  A    between atoms: _12  and  _13
REMARK    7  A    between atoms: _12  and  _15
REMARK    8  A    between atoms: _15  and  _16
REMARK    9  A    between atoms: _16  and  _17
REMARK   10  A    between atoms: _17  and  _18
REMARK   11  A    between atoms: _27  and  _29
REMARK   12  A    between atoms: _29  and  _30
REMARK   13  A    between atoms: _29  and  _32
REMARK   14  A    between atoms: _32  and  _33
REMARK   15  A    between atoms: _38  and  _39
REMARK   16  A    between atoms: _41  and  _43
REMARK   17  A    between atoms: _43  and  _44
REMARK   18  A    between atoms: _43  and  _46
REMARK   19  A    between atoms: _46  and  _47
REMARK   20  A    between atoms: _53  and  _55
REMARK   21  A    between atoms: _55  and  _56
REMARK   22  A    between atoms: _55  and  _58
REMARK   23  A    between atoms: _61  and  _63
REMARK   24  A    between atoms: _63  and  _64
REMARK   25  A    between atoms: _63  and  _66
REMARK   26  A    between atoms: _66  and  _67
REMARK   27  A    between atoms: _70  and  _72
REMARK   28  A    between atoms: _72  and  _73
REMARK   29  A    between atoms: _72  and  _75
REMARK   30  A    between atoms: _75  and  _76
REMARK   31  A    between atoms: _81  and  _82
REMARK   32  A    between atoms: _84  and  _86
REMARK   33  A    between atoms: _86  and  _87
REMARK   34  A    between atoms: _86  and  _89
REMARK   35  A    between atoms: _89  and  _90
REMARK   36  A    between atoms: _90  and  _91
REMARK   37  A    between atoms: _93  and  _95
REMARK   38  A    between atoms: _95  and  _96
REMARK   39  A    between atoms: _95  and  _98
REMARK   40  A    between atoms: _98  and  _99
REMARK   41  A    between atoms: _99  and  _100
REMARK   42  A    between atoms: _103  and  _105
REMARK   43  A    between atoms: _105  and  _106
REMARK   44  A    between atoms: _105  and  _108
REMARK   45  A    between atoms: _111  and  _113
REMARK   46  A    between atoms: _113  and  _114
REMARK   47  A    between atoms: _116  and  _118
REMARK   48  A    between atoms: _118  and  _119
REMARK   49  A    between atoms: _118  and  _121
REMARK   50  A    between atoms: _124  and  _126
REMARK   51  A    between atoms: _126  and  _127
REMARK   52  A    between atoms: _126  and  _129
REMARK   53  A    between atoms: _129  and  _130
REMARK   54  A    between atoms: _136  and  _138
REMARK   55  A    between atoms: _138  and  _139
REMARK   56  A    between atoms: _138  and  _141
REMARK   57  A    between atoms: _144  and  _146
REMARK   58  A    between atoms: _146  and  _147
REMARK   59  A    between atoms: _146  and  _149
REMARK   60  A    between atoms: _149  and  _150
REMARK   61  A    between atoms: _156  and  _158
REMARK   62  A    between atoms: _158  and  _159
REMARK   63  A    between atoms: _158  and  _161
REMARK   64  A    between atoms: _161  and  _162
REMARK   65  A    between atoms: _167  and  _168
REMARK   66  A    between atoms: _170  and  _172
REMARK   67  A    between atoms: _172  and  _173
REMARK   68  A    between atoms: _172  and  _175
REMARK   69  A    between atoms: _175  and  _176
REMARK   70  A    between atoms: _176  and  _177
REMARK   71  A    between atoms: _179  and  _181
REMARK   72  A    between atoms: _181  and  _182
REMARK   73  A    between atoms: _181  and  _184
REMARK   74  A    between atoms: _184  and  _185
REMARK   75  A    between atoms: _190  and  _191
REMARK   76  A    between atoms: _193  and  _195
REMARK   77  A    between atoms: _195  and  _196
REMARK   78  A    between atoms: _195  and  _198
REMARK   79  A    between atoms: _198  and  _199
REMARK   80  A    between atoms: _199  and  _200
REMARK   81  A    between atoms: _200  and  _201
REMARK   82  A    between atoms: _210  and  _212
REMARK   83  A    between atoms: _212  and  _213
REMARK   84  A    between atoms: _212  and  _215
REMARK   85  A    between atoms: _215  and  _216
REMARK   86  A    between atoms: _216  and  _217
REMARK   87  A    between atoms: _220  and  _222
REMARK   88  A    between atoms: _222  and  _223
REMARK   89  A    between atoms: _222  and  _225
REMARK   90  A    between atoms: _225  and  _226
REMARK   91  A    between atoms: _226  and  _227
REMARK   92  A    between atoms: _232  and  _234
REMARK   93  A    between atoms: _234  and  _235
REMARK   94  A    between atoms: _234  and  _237
REMARK   95  A    between atoms: _237  and  _238
REMARK   96  A    between atoms: _238  and  _239
REMARK   97  A    between atoms: _239  and  _240
REMARK   98  A    between atoms: _240  and  _241
REMARK   99  A    between atoms: _245  and  _247
REMARK  100  A    between atoms: _247  and  _248
REMARK  101  A    between atoms: _251  and  _253
REMARK  102  A    between atoms: _253  and  _254
REMARK  103  A    between atoms: _256  and  _258
REMARK  104  A    between atoms: _258  and  _259
REMARK  105  A    between atoms: _258  and  _261
REMARK  106  A    between atoms: _261  and  _262
REMARK  107  A    between atoms: _267  and  _269
REMARK  108  A    between atoms: _269  and  _270
REMARK  109  A    between atoms: _269  and  _272
REMARK  110  A    between atoms: _272  and  _273
REMARK  111  A    between atoms: _273  and  _274
REMARK  112  A    between atoms: _277  and  _279
REMARK  113  A    between atoms: _279  and  _280
REMARK  114  A    between atoms: _279  and  _282
REMARK  115  A    between atoms: _282  and  _283
REMARK  116  A    between atoms: _283  and  _284
REMARK  117  A    between atoms: _289  and  _291
REMARK  118  A    between atoms: _291  and  _292
REMARK  119  A    between atoms: _291  and  _294
REMARK  120  A    between atoms: _294  and  _295
REMARK  121  A    between atoms: _297  and  _299
REMARK  122  A    between atoms: _299  and  _300
REMARK  123  A    between atoms: _299  and  _302
REMARK  124  A    between atoms: _302  and  _303
REMARK  125  A    between atoms: _309  and  _311
REMARK  126  A    between atoms: _311  and  _312
REMARK  127  A    between atoms: _311  and  _314
REMARK  128  A    between atoms: _314  and  _315
REMARK  129  A    between atoms: _315  and  _316
REMARK  130  A    between atoms: _316  and  _317
REMARK  131  A    between atoms: _326  and  _328
REMARK  132  A    between atoms: _328  and  _329
REMARK  133  A    between atoms: _328  and  _331
REMARK  134  A    between atoms: _334  and  _336
REMARK  135  A    between atoms: _336  and  _337
REMARK  136  A    between atoms: _336  and  _339
REMARK  137  A    between atoms: _339  and  _340
REMARK  138  A    between atoms: _343  and  _345
REMARK  139  A    between atoms: _345  and  _346
REMARK  140  A    between atoms: _345  and  _348
REMARK  141  A    between atoms: _348  and  _349
REMARK  142  A    between atoms: _352  and  _354
REMARK  143  A    between atoms: _354  and  _355
REMARK  144  A    between atoms: _354  and  _357
REMARK  145  A    between atoms: _357  and  _358
REMARK  146  A    between atoms: _358  and  _359
REMARK  147  A    between atoms: _359  and  _360
REMARK  148  A    between atoms: _369  and  _371
REMARK  149  A    between atoms: _371  and  _372
REMARK  150  A    between atoms: _371  and  _374
REMARK  151  A    between atoms: _374  and  _375
REMARK  152  A    between atoms: _378  and  _380
REMARK  153  A    between atoms: _380  and  _381
REMARK  154  A    between atoms: _380  and  _383
REMARK  155  A    between atoms: _383  and  _384
REMARK  156  A    between atoms: _387  and  _389
REMARK  157  A    between atoms: _389  and  _390
REMARK  158  A    between atoms: _389  and  _392
REMARK  159  A    between atoms: _392  and  _393
REMARK  160  A    between atoms: _398  and  _399
REMARK  161  A    between atoms: _401  and  _403
REMARK  162  A    between atoms: _403  and  _404
REMARK  163  A    between atoms: _403  and  _406
REMARK  164  A    between atoms: _406  and  _407
REMARK  165  A    between atoms: _412  and  _413
REMARK  166  A    between atoms: _415  and  _417
REMARK  167  A    between atoms: _417  and  _418
REMARK  168  A    between atoms: _417  and  _420
REMARK  169  A    between atoms: _420  and  _421
REMARK  170  A    between atoms: _424  and  _426
REMARK  171  A    between atoms: _426  and  _427
REMARK  172  A    between atoms: _426  and  _429
REMARK  173  A    between atoms: _429  and  _430
REMARK  174  A    between atoms: _430  and  _431
REMARK  175  A    between atoms: _436  and  _438
REMARK  176  A    between atoms: _438  and  _439
REMARK  177  A    between atoms: _438  and  _441
REMARK  178  A    between atoms: _444  and  _446
REMARK  179  A    between atoms: _446  and  _447
REMARK  180  A    between atoms: _446  and  _449
REMARK  181  A    between atoms: _449  and  _450
REMARK  182  A    between atoms: _453  and  _455
REMARK  183  A    between atoms: _455  and  _456
REMARK  184  A    between atoms: _455  and  _458
REMARK  185  A    between atoms: _458  and  _459
REMARK  186  A    between atoms: _461  and  _463
REMARK  187  A    between atoms: _463  and  _464
REMARK  188  A    between atoms: _466  and  _468
REMARK  189  A    between atoms: _468  and  _469
REMARK  190  A    between atoms: _468  and  _471
REMARK  191  A    between atoms: _471  and  _472
REMARK  192  A    between atoms: _472  and  _774
REMARK  193  A    between atoms: _473  and  _475
REMARK  194  A    between atoms: _475  and  _476
REMARK  195  A    between atoms: _475  and  _478
REMARK  196  A    between atoms: _478  and  _479
REMARK  197  A    between atoms: _484  and  _485
REMARK  198  A    between atoms: _487  and  _489
REMARK  199  A    between atoms: _489  and  _490
REMARK  200  A    between atoms: _489  and  _492
REMARK  201  A    between atoms: _492  and  _493
REMARK  202  A    between atoms: _493  and  _494
REMARK  203  A    between atoms: _499  and  _501
REMARK  204  A    between atoms: _501  and  _502
REMARK  205  A    between atoms: _501  and  _504
REMARK  206  A    between atoms: _504  and  _505
REMARK  207  A    between atoms: _505  and  _506
REMARK  208  A    between atoms: _511  and  _513
REMARK  209  A    between atoms: _513  and  _514
REMARK  210  A    between atoms: _513  and  _516
REMARK  211  A    between atoms: _516  and  _517
REMARK  212  A    between atoms: _522  and  _523
REMARK  213  A    between atoms: _525  and  _527
REMARK  214  A    between atoms: _527  and  _528
REMARK  215  A    between atoms: _531  and  _533
REMARK  216  A    between atoms: _533  and  _534
REMARK  217  A    between atoms: _533  and  _536
REMARK  218  A    between atoms: _536  and  _537
REMARK  219  A    between atoms: _542  and  _543
REMARK  220  A    between atoms: _545  and  _547
REMARK  221  A    between atoms: _547  and  _548
REMARK  222  A    between atoms: _547  and  _550
REMARK  223  A    between atoms: _550  and  _551
REMARK  224  A    between atoms: _556  and  _557
REMARK  225  A    between atoms: _559  and  _561
REMARK  226  A    between atoms: _561  and  _562
REMARK  227  A    between atoms: _561  and  _564
REMARK  228  A    between atoms: _564  and  _565
REMARK  229  A    between atoms: _568  and  _570
REMARK  230  A    between atoms: _570  and  _571
REMARK  231  A    between atoms: _574  and  _576
REMARK  232  A    between atoms: _576  and  _577
REMARK  233  A    between atoms: _580  and  _582
REMARK  234  A    between atoms: _582  and  _583
REMARK  235  A    between atoms: _582  and  _585
REMARK  236  A    between atoms: _585  and  _586
REMARK  237  A    between atoms: _589  and  _591
REMARK  238  A    between atoms: _591  and  _592
REMARK  239  A    between atoms: _591  and  _594
REMARK  240  A    between atoms: _594  and  _595
REMARK  241  A    between atoms: _598  and  _600
REMARK  242  A    between atoms: _600  and  _601
REMARK  243  A    between atoms: _600  and  _603
REMARK  244  A    between atoms: _603  and  _604
REMARK  245  A    between atoms: _607  and  _609
REMARK  246  A    between atoms: _609  and  _610
REMARK  247  A    between atoms: _609  and  _612
REMARK  248  A    between atoms: _612  and  _613
REMARK  249  A    between atoms: _613  and  _614
REMARK  250  A    between atoms: _614  and  _615
REMARK  251  A    between atoms: _615  and  _616
REMARK  252  A    between atoms: _620  and  _622
REMARK  253  A    between atoms: _622  and  _623
REMARK  254  A    between atoms: _622  and  _625
REMARK  255  A    between atoms: _625  and  _626
REMARK  256  A    between atoms: _631  and  _633
REMARK  257  A    between atoms: _633  and  _634
REMARK  258  A    between atoms: _633  and  _636
REMARK  259  A    between atoms: _636  and  _637
REMARK  260  A    between atoms: _637  and  _638
REMARK  261  A    between atoms: _638  and  _639
REMARK  262  A    between atoms: _639  and  _640
REMARK  263  A    between atoms: _644  and  _646
REMARK  264  A    between atoms: _646  and  _647
REMARK  265  A    between atoms: _646  and  _649
REMARK  266  A    between atoms: _649  and  _650
REMARK  267  A    between atoms: _660  and  _662
REMARK  268  A    between atoms: _662  and  _663
REMARK  269  A    between atoms: _666  and  _668
REMARK  270  A    between atoms: _668  and  _669
REMARK  271  A    between atoms: _671  and  _673
REMARK  272  A    between atoms: _673  and  _674
REMARK  273  A    between atoms: _673  and  _676
REMARK  274  A    between atoms: _676  and  _677
REMARK  275  A    between atoms: _677  and  _678
REMARK  276  A    between atoms: _681  and  _683
REMARK  277  A    between atoms: _683  and  _684
REMARK  278  A    between atoms: _687  and  _689
REMARK  279  A    between atoms: _689  and  _690
REMARK  280  A    between atoms: _689  and  _692
REMARK  281  A    between atoms: _692  and  _693
REMARK  282  A    between atoms: _693  and  _694
REMARK  283  A    between atoms: _694  and  _695
REMARK  284  A    between atoms: _704  and  _706
REMARK  285  A    between atoms: _706  and  _707
REMARK  286  A    between atoms: _706  and  _709
REMARK  287  A    between atoms: _709  and  _710
REMARK  288  A    between atoms: _713  and  _715
REMARK  289  A    between atoms: _715  and  _716
REMARK  290  A    between atoms: _715  and  _718
REMARK  291  A    between atoms: _718  and  _719
REMARK  292  A    between atoms: _719  and  _720
REMARK  293  A    between atoms: _720  and  _721
REMARK  294  A    between atoms: _730  and  _732
REMARK  295  A    between atoms: _732  and  _733
REMARK  296  A    between atoms: _736  and  _738
REMARK  297  A    between atoms: _738  and  _739
REMARK  298  A    between atoms: _738  and  _741
REMARK  299  A    between atoms: _741  and  _742
REMARK  300  A    between atoms: _747  and  _748
REMARK  301  A    between atoms: _750  and  _752
REMARK  302  A    between atoms: _752  and  _753
REMARK  303  A    between atoms: _752  and  _755
REMARK  304  A    between atoms: _755  and  _756
REMARK  305  A    between atoms: _759  and  _761
REMARK  306  A    between atoms: _761  and  _762
REMARK  307  A    between atoms: _761  and  _764
REMARK  308  A    between atoms: _764  and  _765
REMARK  309  A    between atoms: _768  and  _770
REMARK  310  A    between atoms: _770  and  _771
REMARK  311  A    between atoms: _770  and  _773
REMARK  312  A    between atoms: _773  and  _774
REMARK  313  A    between atoms: _775  and  _777
REMARK  314  A    between atoms: _777  and  _778
REMARK  315  A    between atoms: _777  and  _780
REMARK  316  A    between atoms: _783  and  _785
REMARK  317  A    between atoms: _785  and  _786
REMARK  318  A    between atoms: _785  and  _788
REMARK  319  A    between atoms: _788  and  _789
REMARK  320  A    between atoms: _789  and  _790
REMARK  321  A    between atoms: _793  and  _795
REMARK  322  A    between atoms: _795  and  _796
REMARK  323  A    between atoms: _795  and  _798
REMARK  324  A    between atoms: _798  and  _799
REMARK  325  A    between atoms: _809  and  _811
REMARK  326  A    between atoms: _811  and  _812
REMARK  327  A    between atoms: _811  and  _814
REMARK  328  A    between atoms: _814  and  _815
REMARK  329  A    between atoms: _818  and  _820
REMARK  330  A    between atoms: _820  and  _821
REMARK  331  A    between atoms: _820  and  _823
REMARK  332  A    between atoms: _823  and  _824
REMARK  333  A    between atoms: _829  and  _830
REMARK                            x       y       z     vdW  Elec       q    Type
REMARK                         _______ _______ _______ _____ _____    ______ ____
ROOT
ATOM      1  CA  LYS A   2     -21.027  -0.401  29.140  0.00  0.00    +0.149 C 
ENDROOT
BRANCH   1   3
ATOM      2  C   GLN A   1     -22.663  -1.503  27.738  0.00  0.00    +0.238 C 
ATOM      3  N   LYS A   2     -21.687  -1.600  28.636  0.00  0.00    -0.297 N 
ATOM      4  H   LYS A   2     -21.393  -2.536  28.981  0.00  0.00    +0.150 HD
ATOM      5  O   GLN A   1     -23.103  -0.423  27.364  0.00  0.00    -0.274 OA
BRANCH   2   6
ATOM      6  CA  GLN A   1     -23.233  -2.808  27.172  0.00  0.00    +0.145 C 
BRANCH   6   7
ATOM      7  N   GLN A   1     -22.207  -3.826  27.022  0.00  0.00    -0.238 NA
ATOM      8  H   GLN A   1     -22.251  -4.700  27.583  0.00  0.00    +0.142 HD
ENDBRANCH   6   7
BRANCH   6   9
ATOM      9  CB  GLN A   1     -24.407  -3.324  28.013  0.00  0.00    +0.036 C 
BRANCH   9  10
ATOM     10  CG  GLN A   1     -25.225  -4.400  27.293  0.00  0.00    +0.087 C 
BRANCH  10  11
ATOM     11  CD  GLN A   1     -25.713  -3.945  25.924  0.00  0.00    +0.219 C 
ATOM     12  OE1 GLN A   1     -26.379  -2.912  25.807  0.00  0.00    -0.275 OA
ATOM     13  NE2 GLN A   1     -25.371  -4.707  24.877  0.00  0.00    -0.329 N 
ATOM     14 HE21 GLN A   1     -24.809  -5.569  25.023  0.00  0.00    +0.145 HD
ATOM     15 HE22 GLN A   1     -25.668  -4.436  23.918  0.00  0.00    +0.145 HD
ENDBRANCH  10  11
ENDBRANCH   9  10
ENDBRANCH   6   9
ENDBRANCH   2   6
ENDBRANCH   1   3
BRANCH   1  16
ATOM     16  C   LYS A   2     -20.250   0.317  28.025  0.00  0.00    +0.241 C 
ATOM     17  O   LYS A   2     -20.227   1.549  27.951  0.00  0.00    -0.273 OA
ATOM     18  N   ALA A   3     -19.613  -0.468  27.169  0.00  0.00    -0.298 N 
ATOM     19  H   ALA A   3     -19.664  -1.499  27.292  0.00  0.00    +0.150 HD
BRANCH  18  20
ATOM     20  CA  ALA A   3     -18.841   0.080  26.056  0.00  0.00    +0.137 C 
ATOM     21  CB  ALA A   3     -18.109  -1.035  25.336  0.00  0.00    +0.030 C 
BRANCH  20  22
ATOM     22  C   ALA A   3     -19.730   0.846  25.082  0.00  0.00    +0.227 C 
ATOM     23  O   ALA A   3     -19.365   1.917  24.587  0.00  0.00    -0.286 OA
ENDBRANCH  20  22
ENDBRANCH  18  20
ENDBRANCH   1  16
BRANCH   1  24
ATOM     24  CB  LYS A   2     -20.087  -0.745  30.292  0.00  0.00    +0.029 C 
BRANCH  24  25
ATOM     25  CG  LYS A   2     -19.376   0.460  30.877  0.00  0.00    +0.000 C 
BRANCH  25  26
ATOM     26  CD  LYS A   2     -18.914   0.159  32.315  0.00  0.00    -0.024 C 
BRANCH  26  27
ATOM     27  CE  LYS A   2     -18.086  -1.119  32.387  0.00  0.00    -0.086 C 
BRANCH  27  28
ATOM     28  NZ  LYS A   2     -16.765  -0.968  31.701  0.00  0.00    +0.380 N 
ATOM     29  HZ1 LYS A   2     -16.225  -0.204  32.155  0.00  0.00    -0.089 HD
ATOM     30  HZ2 LYS A   2     -16.234  -1.859  31.774  0.00  0.00    -0.089 HD
ATOM     31  HZ3 LYS A   2     -16.921  -0.736  30.699  0.00  0.00    -0.089 HD
ENDBRANCH  27  28
ENDBRANCH  26  27
ENDBRANCH  25  26
ENDBRANCH  24  25
ENDBRANCH   1  24
TORSDOF 14
REMARK  Name = ../refined-set-2016/3p9l/3p9l_pocket.pdb
REMARK  333 active torsions:
REMARK  status: ('A' for Active; 'I' for Inactive)
REMARK    1  A    between atoms: _1  and  _3
REMARK    2  A    between atoms: _3  and  _4
REMARK    3  A    between atoms: _3  and  _6
REMARK    4  A    between atoms: _6  and  _7
REMARK    5  A    between atoms: _10  and  _12
REMARK    6  A    between atoms: _12  and  _13
REMARK    7  A    between atoms: _12  and  _15
REMARK    8  A    between atoms: _15  and  _16
REMARK    9  A    between atoms: _16  and  _17
REMARK   10  A    between atoms: _17  and  _18
REMARK   11  A    between atoms: _27  and  _29
REMARK   12  A    between atoms: _29  and  _30
REMARK   13  A    between atoms: _29  and  _32
REMARK   14  A    between atoms: _32  and  _33
REMARK   15  A    between atoms: _38  and  _39
REMARK   16  A    between atoms: _41  and  _43
REMARK   17  A    between atoms: _43  and  _44
REMARK   18  A    between atoms: _43  and  _46
REMARK   19  A    between atoms: _46  and  _47
REMARK   20  A    between atoms: _53  and  _55
REMARK   21  A    between atoms: _55  and  _56
REMARK   22  A    between atoms: _55  and  _58
REMARK   23  A    between atoms: _61  and  _63
REMARK   24  A    between atoms: _63  and  _64
REMARK   25  A    between atoms: _63  and  _66
REMARK   26  A    between atoms: _66  and  _67
REMARK   27  A    between atoms: _70  and  _72
REMARK   28  A    between atoms: _72  and  _73
REMARK   29  A    between atoms: _72  and  _75
REMARK   30  A    between atoms: _75  and  _76
REMARK   31  A    between atoms: _81  and  _82
REMARK   32  A    between atoms: _84  and  _86
REMARK   33  A    between atoms: _86  and  _87
REMARK   34  A    between atoms: _86  and  _89
REMARK   35  A    between atoms: _89  and  _90
REMARK   36  A    between atoms: _90  and  _91
REMARK   37  A    between atoms: _93  and  _95
REMARK   38  A    between atoms: _95  and  _96
REMARK   39  A    between atoms: _95  and  _98
REMARK   40  A    between atoms: _98  and  _99
REMARK   41  A    between atoms: _99  and  _100
REMARK   42  A    between atoms: _103  and  _105
REMARK   43  A    between atoms: _105  and  _106
REMARK   44  A    between atoms: _105  and  _108
REMARK   45  A    between atoms: _111  and  _113
REMARK   46  A    between atoms: _113  and  _114
REMARK   47  A    between atoms: _116  and  _118
REMARK   48  A    between atoms: _118  and  _119
REMARK   49  A    between atoms: _118  and  _121
REMARK   50  A    between atoms: _124  and  _126
REMARK   51  A    between atoms: _126  and  _127
REMARK   52  A    between atoms: _126  and  _129
REMARK   53  A    between atoms: _129  and  _130
REMARK   54  A    between atoms: _136  and  _138
REMARK   55  A    between atoms: _138  and  _139
REMARK   56  A    between atoms: _138  and  _141
REMARK   57  A    between atoms: _144  and  _146
REMARK   58  A    between atoms: _146  and  _147
REMARK   59  A    between atoms: _146  and  _149
REMARK   60  A    between atoms: _149  and  _150
REMARK   61  A    between atoms: _156  and  _158
REMARK   62  A    between atoms: _158  and  _159
REMARK   63  A    between atoms: _158  and  _161
REMARK   64  A    between atoms: _161  and  _162
REMARK   65  A    between atoms: _167  and  _168
REMARK   66  A    between atoms: _170  and  _172
REMARK   67  A    between atoms: _172  and  _173
REMARK   68  A    between atoms: _172  and  _175
REMARK   69  A    between atoms: _175  and  _176
REMARK   70  A    between atoms: _176  and  _177
REMARK   71  A    between atoms: _179  and  _181
REMARK   72  A    between atoms: _181  and  _182
REMARK   73  A    between atoms: _181  and  _184
REMARK   74  A    between atoms: _184  and  _185
REMARK   75  A    between atoms: _190  and  _191
REMARK   76  A    between atoms: _193  and  _195
REMARK   77  A    between atoms: _195  and  _196
REMARK   78  A    between atoms: _195  and  _198
REMARK   79  A    between atoms: _198  and  _199
REMARK   80  A    between atoms: _199  and  _200
REMARK   81  A    between atoms: _200  and  _201
REMARK   82  A    between atoms: _210  and  _212
REMARK   83  A    between atoms: _212  and  _213
REMARK   84  A    between atoms: _212  and  _215
REMARK   85  A    between atoms: _215  and  _216
REMARK   86  A    between atoms: _216  and  _217
REMARK   87  A    between atoms: _220  and  _222
REMARK   88  A    between atoms: _222  and  _223
REMARK   89  A    between atoms: _222  and  _225
REMARK   90  A    between atoms: _225  and  _226
REMARK   91  A    between atoms: _226  and  _227
REMARK   92  A    between atoms: _232  and  _234
REMARK   93  A    between atoms: _234  and  _235
REMARK   94  A    between atoms: _234  and  _237
REMARK   95  A    between atoms: _237  and  _238
REMARK   96  A    between atoms: _238  and  _239
REMARK   97  A    between atoms: _239  and  _240
REMARK   98  A    between atoms: _240  and  _241
REMARK   99  A    between atoms: _245  and  _247
REMARK  100  A    between atoms: _247  and  _248
REMARK  101  A    between atoms: _251  and  _253
REMARK  102  A    between atoms: _253  and  _254
REMARK  103  A    between atoms: _256  and  _258
REMARK  104  A    between atoms: _258  and  _259
REMARK  105  A    between atoms: _258  and  _261
REMARK  106  A    between atoms: _261  and  _262
REMARK  107  A    between atoms: _267  and  _269
REMARK  108  A    between atoms: _269  and  _270
REMARK  109  A    between atoms: _269  and  _272
REMARK  110  A    between atoms: _272  and  _273
REMARK  111  A    between atoms: _273  and  _274
REMARK  112  A    between atoms: _277  and  _279
REMARK  113  A    between atoms: _279  and  _280
REMARK  114  A    between atoms: _279  and  _282
REMARK  115  A    between atoms: _282  and  _283
REMARK  116  A    between atoms: _283  and  _284
REMARK  117  A    between atoms: _289  and  _291
REMARK  118  A    between atoms: _291  and  _292
REMARK  119  A    between atoms: _291  and  _294
REMARK  120  A    between atoms: _294  and  _295
REMARK  121  A    between atoms: _297  and  _299
REMARK  122  A    between atoms: _299  and  _300
REMARK  123  A    between atoms: _299  and  _302
REMARK  124  A    between atoms: _302  and  _303
REMARK  125  A    between atoms: _309  and  _311
REMARK  126  A    between atoms: _311  and  _312
REMARK  127  A    between atoms: _311  and  _314
REMARK  128  A    between atoms: _314  and  _315
REMARK  129  A    between atoms: _315  and  _316
REMARK  130  A    between atoms: _316  and  _317
REMARK  131  A    between atoms: _326  and  _328
REMARK  132  A    between atoms: _328  and  _329
REMARK  133  A    between atoms: _328  and  _331
REMARK  134  A    between atoms: _334  and  _336
REMARK  135  A    between atoms: _336  and  _337
REMARK  136  A    between atoms: _336  and  _339
REMARK  137  A    between atoms: _339  and  _340
REMARK  138  A    between atoms: _343  and  _345
REMARK  139  A    between atoms: _345  and  _346
REMARK  140  A    between atoms: _345  and  _348
REMARK  141  A    between atoms: _348  and  _349
REMARK  142  A    between atoms: _352  and  _354
REMARK  143  A    between atoms: _354  and  _355
REMARK  144  A    between atoms: _354  and  _357
REMARK  145  A    between atoms: _357  and  _358
REMARK  146  A    between atoms: _358  and  _359
REMARK  147  A    between atoms: _359  and  _360
REMARK  148  A    between atoms: _369  and  _371
REMARK  149  A    between atoms: _371  and  _372
REMARK  150  A    between atoms: _371  and  _374
REMARK  151  A    between atoms: _374  and  _375
REMARK  152  A    between atoms: _378  and  _380
REMARK  153  A    between atoms: _380  and  _381
REMARK  154  A    between atoms: _380  and  _383
REMARK  155  A    between atoms: _383  and  _384
REMARK  156  A    between atoms: _387  and  _389
REMARK  157  A    between atoms: _389  and  _390
REMARK  158  A    between atoms: _389  and  _392
REMARK  159  A    between atoms: _392  and  _393
REMARK  160  A    between atoms: _398  and  _399
REMARK  161  A    between atoms: _401  and  _403
REMARK  162  A    between atoms: _403  and  _404
REMARK  163  A    between atoms: _403  and  _406
REMARK  164  A    between atoms: _406  and  _407
REMARK  165  A    between atoms: _412  and  _413
REMARK  166  A    between atoms: _415  and  _417
REMARK  167  A    between atoms: _417  and  _418
REMARK  168  A    between atoms: _417  and  _420
REMARK  169  A    between atoms: _420  and  _421
REMARK  170  A    between atoms: _424  and  _426
REMARK  171  A    between atoms: _426  and  _427
REMARK  172  A    between atoms: _426  and  _429
REMARK  173  A    between atoms: _429  and  _430
REMARK  174  A    between atoms: _430  and  _431
REMARK  175  A    between atoms: _436  and  _438
REMARK  176  A    between atoms: _438  and  _439
REMARK  177  A    between atoms: _438  and  _441
REMARK  178  A    between atoms: _444  and  _446
REMARK  179  A    between atoms: _446  and  _447
REMARK  180  A    between atoms: _446  and  _449
REMARK  181  A    between atoms: _449  and  _450
REMARK  182  A    between atoms: _453  and  _455
REMARK  183  A    between atoms: _455  and  _456
REMARK  184  A    between atoms: _455  and  _458
REMARK  185  A    between atoms: _458  and  _459
REMARK  186  A    between atoms: _461  and  _463
REMARK  187  A    between atoms: _463  and  _464
REMARK  188  A    between atoms: _466  and  _468
REMARK  189  A    between atoms: _468  and  _469
REMARK  190  A    between atoms: _468  and  _471
REMARK  191  A    between atoms: _471  and  _472
REMARK  192  A    between atoms: _472  and  _774
REMARK  193  A    between atoms: _473  and  _475
REMARK  194  A    between atoms: _475  and  _476
REMARK  195  A    between atoms: _475  and  _478
REMARK  196  A    between atoms: _478  and  _479
REMARK  197  A    between atoms: _484  and  _485
REMARK  198  A    between atoms: _487  and  _489
REMARK  199  A    between atoms: _489  and  _490
REMARK  200  A    between atoms: _489  and  _492
REMARK  201  A    between atoms: _492  and  _493
REMARK  202  A    between atoms: _493  and  _494
REMARK  203  A    between atoms: _499  and  _501
REMARK  204  A    between atoms: _501  and  _502
REMARK  205  A    between atoms: _501  and  _504
REMARK  206  A    between atoms: _504  and  _505
REMARK  207  A    between atoms: _505  and  _506
REMARK  208  A    between atoms: _511  and  _513
REMARK  209  A    between atoms: _513  and  _514
REMARK  210  A    between atoms: _513  and  _516
REMARK  211  A    between atoms: _516  and  _517
REMARK  212  A    between atoms: _522  and  _523
REMARK  213  A    between atoms: _525  and  _527
REMARK  214  A    between atoms: _527  and  _528
REMARK  215  A    between atoms: _531  and  _533
REMARK  216  A    between atoms: _533  and  _534
REMARK  217  A    between atoms: _533  and  _536
REMARK  218  A    between atoms: _536  and  _537
REMARK  219  A    between atoms: _542  and  _543
REMARK  220  A    between atoms: _545  and  _547
REMARK  221  A    between atoms: _547  and  _548
REMARK  222  A    between atoms: _547  and  _550
REMARK  223  A    between atoms: _550  and  _551
REMARK  224  A    between atoms: _556  and  _557
REMARK  225  A    between atoms: _559  and  _561
REMARK  226  A    between atoms: _561  and  _562
REMARK  227  A    between atoms: _561  and  _564
REMARK  228  A    between atoms: _564  and  _565
REMARK  229  A    between atoms: _568  and  _570
REMARK  230  A    between atoms: _570  and  _571
REMARK  231  A    between atoms: _574  and  _576
REMARK  232  A    between atoms: _576  and  _577
REMARK  233  A    between atoms: _580  and  _582
REMARK  234  A    between atoms: _582  and  _583
REMARK  235  A    between atoms: _582  and  _585
REMARK  236  A    between atoms: _585  and  _586
REMARK  237  A    between atoms: _589  and  _591
REMARK  238  A    between atoms: _591  and  _592
REMARK  239  A    between atoms: _591  and  _594
REMARK  240  A    between atoms: _594  and  _595
REMARK  241  A    between atoms: _598  and  _600
REMARK  242  A    between atoms: _600  and  _601
REMARK  243  A    between atoms: _600  and  _603
REMARK  244  A    between atoms: _603  and  _604
REMARK  245  A    between atoms: _607  and  _609
REMARK  246  A    between atoms: _609  and  _610
REMARK  247  A    between atoms: _609  and  _612
REMARK  248  A    between atoms: _612  and  _613
REMARK  249  A    between atoms: _613  and  _614
REMARK  250  A    between atoms: _614  and  _615
REMARK  251  A    between atoms: _615  and  _616
REMARK  252  A    between atoms: _620  and  _622
REMARK  253  A    between atoms: _622  and  _623
REMARK  254  A    between atoms: _622  and  _625
REMARK  255  A    between atoms: _625  and  _626
REMARK  256  A    between atoms: _631  and  _633
REMARK  257  A    between atoms: _633  and  _634
REMARK  258  A    between atoms: _633  and  _636
REMARK  259  A    between atoms: _636  and  _637
REMARK  260  A    between atoms: _637  and  _638
REMARK  261  A    between atoms: _638  and  _639
REMARK  262  A    between atoms: _639  and  _640
REMARK  263  A    between atoms: _644  and  _646
REMARK  264  A    between atoms: _646  and  _647
REMARK  265  A    between atoms: _646  and  _649
REMARK  266  A    between atoms: _649  and  _650
REMARK  267  A    between atoms: _660  and  _662
REMARK  268  A    between atoms: _662  and  _663
REMARK  269  A    between atoms: _666  and  _668
REMARK  270  A    between atoms: _668  and  _669
REMARK  271  A    between atoms: _671  and  _673
REMARK  272  A    between atoms: _673  and  _674
REMARK  273  A    between atoms: _673  and  _676
REMARK  274  A    between atoms: _676  and  _677
REMARK  275  A    between atoms: _677  and  _678
REMARK  276  A    between atoms: _681  and  _683
REMARK  277  A    between atoms: _683  and  _684
REMARK  278  A    between atoms: _687  and  _689
REMARK  279  A    between atoms: _689  and  _690
REMARK  280  A    between atoms: _689  and  _692
REMARK  281  A    between atoms: _692  and  _693
REMARK  282  A    between atoms: _693  and  _694
REMARK  283  A    between atoms: _694  and  _695
REMARK  284  A    between atoms: _704  and  _706
REMARK  285  A    between atoms: _706  and  _707
REMARK  286  A    between atoms: _706  and  _709
REMARK  287  A    between atoms: _709  and  _710
REMARK  288  A    between atoms: _713  and  _715
REMARK  289  A    between atoms: _715  and  _716
REMARK  290  A    between atoms: _715  and  _718
REMARK  291  A    between atoms: _718  and  _719
REMARK  292  A    between atoms: _719  and  _720
REMARK  293  A    between atoms: _720  and  _721
REMARK  294  A    between atoms: _730  and  _732
REMARK  295  A    between atoms: _732  and  _733
REMARK  296  A    between atoms: _736  and  _738
REMARK  297  A    between atoms: _738  and  _739
REMARK  298  A    between atoms: _738  and  _741
REMARK  299  A    between atoms: _741  and  _742
REMARK  300  A    between atoms: _747  and  _748
REMARK  301  A    between atoms: _750  and  _752
REMARK  302  A    between atoms: _752  and  _753
REMARK  303  A    between atoms: _752  and  _755
REMARK  304  A    between atoms: _755  and  _756
REMARK  305  A    between atoms: _759  and  _761
REMARK  306  A    between atoms: _761  and  _762
REMARK  307  A    between atoms: _761  and  _764
REMARK  308  A    between atoms: _764  and  _765
REMARK  309  A    between atoms: _768  and  _770
REMARK  310  A    between atoms: _770  and  _771
REMARK  311  A    between atoms: _770  and  _773
REMARK  312  A    between atoms: _773  and  _774
REMARK  313  A    between atoms: _775  and  _777
REMARK  314  A    between atoms: _777  and  _778
REMARK  315  A    between atoms: _777  and  _780
REMARK  316  A    between atoms: _783  and  _785
REMARK  317  A    between atoms: _785  and  _786
REMARK  318  A    between atoms: _785  and  _788
REMARK  319  A    between atoms: _788  and  _789
REMARK  320  A    between atoms: _789  and  _790
REMARK  321  A    between atoms: _793  and  _795
REMARK  322  A    between atoms: _795  and  _796
REMARK  323  A    between atoms: _795  and  _798
REMARK  324  A    between atoms: _798  and  _799
REMARK  325  A    between atoms: _809  and  _811
REMARK  326  A    between atoms: _811  and  _812
REMARK  327  A    between atoms: _811  and  _814
REMARK  328  A    between atoms: _814  and  _815
REMARK  329  A    between atoms: _818  and  _820
REMARK  330  A    between atoms: _820  and  _821
REMARK  331  A    between atoms: _820  and  _823
REMARK  332  A    between atoms: _823  and  _824
REMARK  333  A    between atoms: _829  and  _830
REMARK                            x       y       z     vdW  Elec       q    Type
REMARK                         _______ _______ _______ _____ _____    ______ ____
ROOT
ATOM      1  CA  ARG A   7     -20.741  10.549  19.990  0.00  0.00    +0.149 C 
ENDROOT
BRANCH   1   2
ATOM      2  C   ARG A   7     -21.183  11.977  20.336  0.00  0.00    +0.241 C 
ATOM      3  N   VAL A   8     -21.764  12.136  21.524  0.00  0.00    -0.297 N 
ATOM      4  H   VAL A   8     -21.880  11.305  22.139  0.00  0.00    +0.150 HD
ATOM      5  O   ARG A   7     -20.964  12.916  19.566  0.00  0.00    -0.273 OA
BRANCH   3   6
ATOM      6  CA  VAL A   8     -22.244  13.432  21.996  0.00  0.00    +0.149 C 
BRANCH   6   7
ATOM      7  C   VAL A   8     -21.109  14.428  22.249  0.00  0.00    +0.241 C 
ATOM      8  N   ASP A   9     -20.069  13.970  22.935  0.00  0.00    -0.297 N 
ATOM      9  H   ASP A   9     -20.086  12.992  23.289  0.00  0.00    +0.150 HD
ATOM     10  O   VAL A   8     -21.178  15.589  21.843  0.00  0.00    -0.273 OA
BRANCH   8  11
ATOM     11  CA  ASP A   9     -18.904  14.803  23.204  0.00  0.00    +0.160 C 
BRANCH  11  12
ATOM     12  C   ASP A   9     -18.315  15.395  21.925  0.00  0.00    +0.241 C 
ATOM     13  O   ASP A   9     -17.942  16.568  21.884  0.00  0.00    -0.273 OA
ATOM     14  N   LEU A  10     -18.239  14.582  20.880  0.00  0.00    -0.297 N 
ATOM     15  H   LEU A  10     -18.551  13.595  20.977  0.00  0.00    +0.150 HD
BRANCH  14  16
ATOM     16  CA  LEU A  10     -17.723  15.052  19.591  0.00  0.00    +0.149 C 
BRANCH  16  17
ATOM     17  C   LEU A  10     -18.508  16.250  19.070  0.00  0.00    +0.241 C 
ATOM     18  N   ARG A  11     -19.831  16.196  19.195  0.00  0.00    -0.297 N 
ATOM     19  H   ARG A  11     -20.281  15.337  19.571  0.00  0.00    +0.150 HD
ATOM     20  O   LEU A  10     -17.923  17.220  18.578  0.00  0.00    -0.273 OA
BRANCH  18  21
ATOM     21  CA  ARG A  11     -20.652  17.333  18.808  0.00  0.00    +0.149 C 
BRANCH  21  22
ATOM     22  C   ARG A  11     -20.453  18.503  19.775  0.00  0.00    +0.241 C 
ATOM     23  N   THR A  12     -20.365  18.210  21.067  0.00  0.00    -0.295 N 
ATOM     24  H   THR A  12     -20.461  17.221  21.375  0.00  0.00    +0.150 HD
ATOM     25  O   ARG A  11     -20.370  19.652  19.356  0.00  0.00    -0.273 OA
BRANCH  23  26
ATOM     26  CA  THR A  12     -20.136  19.250  22.061  0.00  0.00    +0.176 C 
BRANCH  26  27
ATOM     27  C   THR A  12     -18.879  20.057  21.733  0.00  0.00    +0.243 C 
ATOM     28  O   THR A  12     -18.878  21.291  21.780  0.00  0.00    -0.273 OA
ATOM     29  N   LEU A  13     -17.808  19.348  21.405  0.00  0.00    -0.298 N 
ATOM     30  H   LEU A  13     -17.882  18.312  21.360  0.00  0.00    +0.150 HD
BRANCH  29  31
ATOM     31  CA  LEU A  13     -16.525  19.984  21.104  0.00  0.00    +0.137 C 
BRANCH  31  32
ATOM     32  C   LEU A  13     -16.531  20.865  19.852  0.00  0.00    +0.227 C 
ATOM     33  O   LEU A  13     -15.860  21.893  19.818  0.00  0.00    -0.286 OA
ENDBRANCH  31  32
BRANCH  31  34
ATOM     34  CB  LEU A  13     -15.414  18.938  21.029  0.00  0.00    +0.028 C 
BRANCH  34  35
ATOM     35  CG  LEU A  13     -15.095  18.311  22.388  0.00  0.00    +0.002 C 
ATOM     36  CD2 LEU A  13     -14.788  19.386  23.412  0.00  0.00    +0.000 C 
ATOM     37  CD1 LEU A  13     -13.941  17.327  22.285  0.00  0.00    +0.000 C 
ENDBRANCH  34  35
ENDBRANCH  31  34
ENDBRANCH  29  31
ENDBRANCH  26  27
BRANCH  26  38
ATOM     38  CB  THR A  12     -19.964  18.644  23.454  0.00  0.00    +0.137 C 
ATOM     39  CG2 THR A  12     -19.596  19.717  24.448  0.00  0.00    +0.034 C 
BRANCH  38  40
ATOM     40  OG1 THR A  12     -21.186  18.014  23.851  0.00  0.00    -0.382 OA
ATOM     41  HG1 THR A  12     -21.076  17.621  24.753  0.00  0.00    +0.210 HD
ENDBRANCH  38  40
ENDBRANCH  26  38
ENDBRANCH  23  26
ENDBRANCH  21  22
BRANCH  21  42
ATOM     42  CB  ARG A  11     -22.127  16.937  18.719  0.00  0.00    +0.033 C 
BRANCH  42  43
ATOM     43  CG  ARG A  11     -22.396  15.820  17.716  0.00  0.00    +0.045 C 
BRANCH  43  44
ATOM     44  CD  ARG A  11     -23.871  15.720  17.371  0.00  0.00    +0.174 C 
BRANCH  44  45
ATOM     45  NE  ARG A  11     -24.675  15.237  18.489  0.00  0.00    -0.265 N 
ATOM     46  HE  ARG A  11     -24.896  15.906  19.254  0.00  0.00    +0.259 HD
ATOM     47  CZ  ARG A  11     -25.143  13.997  18.592  0.00  0.00    +0.342 C 
ATOM     48  NH2 ARG A  11     -25.867  13.642  19.648  0.00  0.00    -0.292 N 
ATOM     49 HH21 ARG A  11     -26.069  14.335  20.397  0.00  0.00    +0.255 HD
ATOM     50 HH22 ARG A  11     -26.232  12.671  19.726  0.00  0.00    +0.255 HD
ATOM     51  NH1 ARG A  11     -24.895  13.111  17.635  0.00  0.00    -0.292 N 
ATOM     52 HH11 ARG A  11     -25.262  12.141  17.717  0.00  0.00    +0.255 HD
ATOM     53 HH12 ARG A  11     -24.334  13.387  16.804  0.00  0.00    +0.255 HD
ENDBRANCH  44  45
ENDBRANCH  43  44
ENDBRANCH  42  43
ENDBRANCH  21  42
ENDBRANCH  18  21
ENDBRANCH  16  17
BRANCH  16  54
ATOM     54  CB  LEU A  10     -17.700  13.925  18.558  0.00  0.00    +0.029 C 
BRANCH  54  55
ATOM     55  CG  LEU A  10     -16.571  12.894  18.714  0.00  0.00    +0.002 C 
ATOM     56  CD2 LEU A  10     -15.219  13.465  18.236  0.00  0.00    +0.000 C 
ATOM     57  CD1 LEU A  10     -16.913  11.604  17.971  0.00  0.00    +0.000 C 
ENDBRANCH  54  55
ENDBRANCH  16  54
ENDBRANCH  14  16
ENDBRANCH  11  12
BRANCH  11  58
ATOM     58  CB  ASP A   9     -17.836  13.989  23.923  0.00  0.00    +0.143 C 
BRANCH  58  59
ATOM     59  CG  ASP A   9     -18.231  13.628  25.331  0.00  0.00    +0.367 C 
ATOM     60  OD2 ASP A   9     -18.963  14.418  25.973  0.00  0.00    -0.246 OA
ATOM     61  OD1 ASP A   9     -17.795  12.553  25.795  0.00  0.00    -0.246 OA
ENDBRANCH  58  59
ENDBRANCH  11  58
ENDBRANCH   8  11
ENDBRANCH   6   7
BRANCH   6  62
ATOM     62  CB  VAL A   8     -23.073  13.273  23.288  0.00  0.00    +0.027 C 
ATOM     63  CG2 VAL A   8     -23.390  14.632  23.881  0.00  0.00    +0.002 C 
ATOM     64  CG1 VAL A   8     -24.356  12.495  23.006  0.00  0.00    +0.002 C 
ENDBRANCH   6  62
ENDBRANCH   3   6
ENDBRANCH   1   2
BRANCH   1  67
ATOM     65  C   PHE A   6     -19.068  10.680  21.747  0.00  0.00    +0.241 C 
ATOM     66  O   PHE A   6     -18.602  11.725  21.289  0.00  0.00    -0.273 OA
ATOM     67  N   ARG A   7     -20.027   9.997  21.137  0.00  0.00    -0.297 N 
ATOM     68  H   ARG A   7     -20.276   9.048  21.483  0.00  0.00    +0.150 HD
BRANCH  65  69
ATOM     69  CA  PHE A   6     -18.549  10.091  23.065  0.00  0.00    +0.153 C 
BRANCH  69  72
ATOM     70  C   SER A   5     -20.528  10.177  24.462  0.00  0.00    +0.243 C 
ATOM     71  O   SER A   5     -20.558  11.400  24.361  0.00  0.00    -0.273 OA
ATOM     72  N   PHE A   6     -19.593   9.451  23.867  0.00  0.00    -0.297 N 
ATOM     73  H   PHE A   6     -19.601   8.416  23.971  0.00  0.00    +0.150 HD
BRANCH  70  74
ATOM     74  CA  SER A   5     -21.615   9.414  25.243  0.00  0.00    +0.178 C 
BRANCH  74  76
ATOM     75  C   GLN A   4     -22.493   8.286  23.284  0.00  0.00    +0.241 C 
ATOM     76  N   SER A   5     -21.998   8.217  24.514  0.00  0.00    -0.295 N 
ATOM     77  H   SER A   5     -21.882   7.287  24.965  0.00  0.00    +0.150 HD
ATOM     78  O   GLN A   4     -22.677   9.348  22.687  0.00  0.00    -0.273 OA
BRANCH  75  79
ATOM     79  CA  GLN A   4     -22.818   6.957  22.639  0.00  0.00    +0.149 C 
BRANCH  79  81
ATOM     80  C   GLU A   3     -20.522   6.150  22.395  0.00  0.00    +0.241 C 
ATOM     81  N   GLN A   4     -21.742   6.005  22.907  0.00  0.00    -0.297 N 
ATOM     82  H   GLN A   4     -21.936   5.186  23.519  0.00  0.00    +0.150 HD
ATOM     83  O   GLU A   3     -20.188   7.119  21.684  0.00  0.00    -0.273 OA
BRANCH  80  84
ATOM     84  CA  GLU A   3     -19.541   5.039  22.716  0.00  0.00    +0.149 C 
BRANCH  84  87
ATOM     85  C   ASN A   2     -19.469   5.528  25.101  0.00  0.00    +0.241 C 
ATOM     86  O   ASN A   2     -19.297   6.739  24.894  0.00  0.00    -0.273 OA
ATOM     87  N   GLU A   3     -19.598   4.634  24.125  0.00  0.00    -0.297 N 
ATOM     88  H   GLU A   3     -19.742   3.632  24.364  0.00  0.00    +0.150 HD
BRANCH  85  89
ATOM     89  CA  ASN A   2     -19.530   4.968  26.513  0.00  0.00    +0.158 C 
BRANCH  89  91
ATOM     90  C   GLY A   1     -21.894   4.440  26.402  0.00  0.00    +0.240 C 
ATOM     91  N   ASN A   2     -20.653   4.053  26.668  0.00  0.00    -0.297 N 
ATOM     92  H   ASN A   2     -20.479   3.080  26.993  0.00  0.00    +0.150 HD
ATOM     93  O   GLY A   1     -22.179   5.597  26.103  0.00  0.00    -0.274 OA
BRANCH  90  94
ATOM     94  CA  GLY A   1     -22.966   3.368  26.504  0.00  0.00    +0.169 C 
BRANCH  94  95
ATOM     95  N   GLY A   1     -22.552   2.174  25.791  0.00  0.00    -0.236 NA
ATOM     96  H   GLY A   1     -22.377   1.295  26.319  0.00  0.00    +0.142 HD
ENDBRANCH  94  95
ENDBRANCH  90  94
ENDBRANCH  89  91
BRANCH  89  97
ATOM     97  CB  ASN A   2     -18.224   4.244  26.814  0.00  0.00    +0.114 C 
BRANCH  97  98
ATOM     98  CG  ASN A   2     -17.901   4.219  28.291  0.00  0.00    +0.222 C 
ATOM     99  OD1 ASN A   2     -18.427   5.018  29.068  0.00  0.00    -0.275 OA
ATOM    100  ND2 ASN A   2     -17.017   3.307  28.687  0.00  0.00    -0.329 N 
ATOM    101 HD21 ASN A   2     -16.744   3.248  29.689  0.00  0.00    +0.145 HD
ATOM    102 HD22 ASN A   2     -16.599   2.653  27.995  0.00  0.00    +0.145 HD
ENDBRANCH  97  98
ENDBRANCH  89  97
ENDBRANCH  85  89
ENDBRANCH  84  87
BRANCH  84 103
ATOM    103  CB  GLU A   3     -19.808   3.852  21.781  0.00  0.00    +0.041 C 
BRANCH 103 104
ATOM    104  CG  GLU A   3     -20.082   4.276  20.327  0.00  0.00    +0.116 C 
BRANCH 104 105
ATOM    105  CD  GLU A   3     -20.246   3.088  19.384  0.00  0.00    +0.365 C 
ATOM    106  OE2 GLU A   3     -19.987   1.934  19.803  0.00  0.00    -0.246 OA
ATOM    107  OE1 GLU A   3     -20.640   3.311  18.222  0.00  0.00    -0.246 OA
ENDBRANCH 104 105
ENDBRANCH 103 104
ENDBRANCH  84 103
ENDBRANCH  80  84
ENDBRANCH  79  81
BRANCH  79 108
ATOM    108  CB  GLN A   4     -24.161   6.421  23.161  0.00  0.00    +0.039 C 
BRANCH 108 109
ATOM    109  CG  GLN A   4     -25.237   7.481  23.405  0.00  0.00    +0.087 C 
BRANCH 109 110
ATOM    110  CD  GLN A   4     -25.679   8.201  22.142  0.00  0.00    +0.219 C 
ATOM    111  NE2 GLN A   4     -26.383   9.315  22.316  0.00  0.00    -0.329 N 
ATOM    112 HE21 GLN A   4     -26.599   9.649  23.277  0.00  0.00    +0.145 HD
ATOM    113 HE22 GLN A   4     -26.718   9.853  21.491  0.00  0.00    +0.145 HD
ATOM    114  OE1 GLN A   4     -25.397   7.763  21.027  0.00  0.00    -0.275 OA
ENDBRANCH 109 110
ENDBRANCH 108 109
ENDBRANCH  79 108
ENDBRANCH  75  79
ENDBRANCH  74  76
BRANCH  74 115
ATOM    115  CB  SER A   5     -21.126   9.032  26.643  0.00  0.00    +0.166 C 
BRANCH 115 116
ATOM    116  OG  SER A   5     -20.989  10.173  27.466  0.00  0.00    -0.380 OA
ATOM    117  H   SER A   5     -20.333  10.794  27.061  0.00  0.00    +0.211 HD
ENDBRANCH 115 116
ENDBRANCH  74 115
ENDBRANCH  70  74
ENDBRANCH  69  72
BRANCH  69 118
ATOM    118  CB  PHE A   6     -17.388   9.128  22.817  0.00  0.00    +0.055 C 
BRANCH 118 119
ATOM    119  CG  PHE A   6     -16.428   9.034  23.983  0.00  0.00    -0.020 A 
ATOM    120  CD2 PHE A   6     -16.663   8.153  25.024  0.00  0.00    -0.004 A 
ATOM    121  CE2 PHE A   6     -15.783   8.063  26.105  0.00  0.00    -0.000 A 
ATOM    122  CZ  PHE A   6     -14.674   8.856  26.149  0.00  0.00    -0.000 A 
ATOM    123  CE1 PHE A   6     -14.421   9.743  25.113  0.00  0.00    -0.000 A 
ATOM    124  CD1 PHE A   6     -15.299   9.829  24.037  0.00  0.00    -0.004 A 
ENDBRANCH 118 119
ENDBRANCH  69 118
ENDBRANCH  65  69
ENDBRANCH   1  67
BRANCH   1 125
ATOM    125  CB  ARG A   7     -21.948   9.666  19.639  0.00  0.00    +0.033 C 
BRANCH 125 126
ATOM    126  CG  ARG A   7     -22.662  10.042  18.345  0.00  0.00    +0.045 C 
BRANCH 126 127
ATOM    127  CD  ARG A   7     -23.864   9.128  18.095  0.00  0.00    +0.174 C 
BRANCH 127 128
ATOM    128  NE  ARG A   7     -24.578   9.476  16.866  0.00  0.00    -0.265 N 
ATOM    129  CZ  ARG A   7     -25.695   8.882  16.448  0.00  0.00    +0.342 C 
ATOM    130  NH2 ARG A   7     -26.240   7.901  17.161  0.00  0.00    -0.292 N 
ATOM    131 HH21 ARG A   7     -25.794   7.594  18.049  0.00  0.00    +0.255 HD
ATOM    132 HH22 ARG A   7     -27.112   7.440  16.831  0.00  0.00    +0.255 HD
ATOM    133  NH1 ARG A   7     -26.273   9.271  15.315  0.00  0.00    -0.292 N 
ATOM    134 HH11 ARG A   7     -27.145   8.807  14.990  0.00  0.00    +0.255 HD
ATOM    135 HH12 ARG A   7     -25.853  10.040  14.754  0.00  0.00    +0.255 HD
ATOM    136  HE  ARG A   7     -24.187  10.240  16.278  0.00  0.00    +0.259 HD
ENDBRANCH 127 128
ENDBRANCH 126 127
ENDBRANCH 125 126
ENDBRANCH   1 125
TORSDOF 55
REMARK  Name = ../refined-set-2016/3p9l/3p9l_pocket.pdb
REMARK  333 active torsions:
REMARK  status: ('A' for Active; 'I' for Inactive)
REMARK    1  A    between atoms: _1  and  _3
REMARK    2  A    between atoms: _3  and  _4
REMARK    3  A    between atoms: _3  and  _6
REMARK    4  A    between atoms: _6  and  _7
REMARK    5  A    between atoms: _10  and  _12
REMARK    6  A    between atoms: _12  and  _13
REMARK    7  A    between atoms: _12  and  _15
REMARK    8  A    between atoms: _15  and  _16
REMARK    9  A    between atoms: _16  and  _17
REMARK   10  A    between atoms: _17  and  _18
REMARK   11  A    between atoms: _27  and  _29
REMARK   12  A    between atoms: _29  and  _30
REMARK   13  A    between atoms: _29  and  _32
REMARK   14  A    between atoms: _32  and  _33
REMARK   15  A    between atoms: _38  and  _39
REMARK   16  A    between atoms: _41  and  _43
REMARK   17  A    between atoms: _43  and  _44
REMARK   18  A    between atoms: _43  and  _46
REMARK   19  A    between atoms: _46  and  _47
REMARK   20  A    between atoms: _53  and  _55
REMARK   21  A    between atoms: _55  and  _56
REMARK   22  A    between atoms: _55  and  _58
REMARK   23  A    between atoms: _61  and  _63
REMARK   24  A    between atoms: _63  and  _64
REMARK   25  A    between atoms: _63  and  _66
REMARK   26  A    between atoms: _66  and  _67
REMARK   27  A    between atoms: _70  and  _72
REMARK   28  A    between atoms: _72  and  _73
REMARK   29  A    between atoms: _72  and  _75
REMARK   30  A    between atoms: _75  and  _76
REMARK   31  A    between atoms: _81  and  _82
REMARK   32  A    between atoms: _84  and  _86
REMARK   33  A    between atoms: _86  and  _87
REMARK   34  A    between atoms: _86  and  _89
REMARK   35  A    between atoms: _89  and  _90
REMARK   36  A    between atoms: _90  and  _91
REMARK   37  A    between atoms: _93  and  _95
REMARK   38  A    between atoms: _95  and  _96
REMARK   39  A    between atoms: _95  and  _98
REMARK   40  A    between atoms: _98  and  _99
REMARK   41  A    between atoms: _99  and  _100
REMARK   42  A    between atoms: _103  and  _105
REMARK   43  A    between atoms: _105  and  _106
REMARK   44  A    between atoms: _105  and  _108
REMARK   45  A    between atoms: _111  and  _113
REMARK   46  A    between atoms: _113  and  _114
REMARK   47  A    between atoms: _116  and  _118
REMARK   48  A    between atoms: _118  and  _119
REMARK   49  A    between atoms: _118  and  _121
REMARK   50  A    between atoms: _124  and  _126
REMARK   51  A    between atoms: _126  and  _127
REMARK   52  A    between atoms: _126  and  _129
REMARK   53  A    between atoms: _129  and  _130
REMARK   54  A    between atoms: _136  and  _138
REMARK   55  A    between atoms: _138  and  _139
REMARK   56  A    between atoms: _138  and  _141
REMARK   57  A    between atoms: _144  and  _146
REMARK   58  A    between atoms: _146  and  _147
REMARK   59  A    between atoms: _146  and  _149
REMARK   60  A    between atoms: _149  and  _150
REMARK   61  A    between atoms: _156  and  _158
REMARK   62  A    between atoms: _158  and  _159
REMARK   63  A    between atoms: _158  and  _161
REMARK   64  A    between atoms: _161  and  _162
REMARK   65  A    between atoms: _167  and  _168
REMARK   66  A    between atoms: _170  and  _172
REMARK   67  A    between atoms: _172  and  _173
REMARK   68  A    between atoms: _172  and  _175
REMARK   69  A    between atoms: _175  and  _176
REMARK   70  A    between atoms: _176  and  _177
REMARK   71  A    between atoms: _179  and  _181
REMARK   72  A    between atoms: _181  and  _182
REMARK   73  A    between atoms: _181  and  _184
REMARK   74  A    between atoms: _184  and  _185
REMARK   75  A    between atoms: _190  and  _191
REMARK   76  A    between atoms: _193  and  _195
REMARK   77  A    between atoms: _195  and  _196
REMARK   78  A    between atoms: _195  and  _198
REMARK   79  A    between atoms: _198  and  _199
REMARK   80  A    between atoms: _199  and  _200
REMARK   81  A    between atoms: _200  and  _201
REMARK   82  A    between atoms: _210  and  _212
REMARK   83  A    between atoms: _212  and  _213
REMARK   84  A    between atoms: _212  and  _215
REMARK   85  A    between atoms: _215  and  _216
REMARK   86  A    between atoms: _216  and  _217
REMARK   87  A    between atoms: _220  and  _222
REMARK   88  A    between atoms: _222  and  _223
REMARK   89  A    between atoms: _222  and  _225
REMARK   90  A    between atoms: _225  and  _226
REMARK   91  A    between atoms: _226  and  _227
REMARK   92  A    between atoms: _232  and  _234
REMARK   93  A    between atoms: _234  and  _235
REMARK   94  A    between atoms: _234  and  _237
REMARK   95  A    between atoms: _237  and  _238
REMARK   96  A    between atoms: _238  and  _239
REMARK   97  A    between atoms: _239  and  _240
REMARK   98  A    between atoms: _240  and  _241
REMARK   99  A    between atoms: _245  and  _247
REMARK  100  A    between atoms: _247  and  _248
REMARK  101  A    between atoms: _251  and  _253
REMARK  102  A    between atoms: _253  and  _254
REMARK  103  A    between atoms: _256  and  _258
REMARK  104  A    between atoms: _258  and  _259
REMARK  105  A    between atoms: _258  and  _261
REMARK  106  A    between atoms: _261  and  _262
REMARK  107  A    between atoms: _267  and  _269
REMARK  108  A    between atoms: _269  and  _270
REMARK  109  A    between atoms: _269  and  _272
REMARK  110  A    between atoms: _272  and  _273
REMARK  111  A    between atoms: _273  and  _274
REMARK  112  A    between atoms: _277  and  _279
REMARK  113  A    between atoms: _279  and  _280
REMARK  114  A    between atoms: _279  and  _282
REMARK  115  A    between atoms: _282  and  _283
REMARK  116  A    between atoms: _283  and  _284
REMARK  117  A    between atoms: _289  and  _291
REMARK  118  A    between atoms: _291  and  _292
REMARK  119  A    between atoms: _291  and  _294
REMARK  120  A    between atoms: _294  and  _295
REMARK  121  A    between atoms: _297  and  _299
REMARK  122  A    between atoms: _299  and  _300
REMARK  123  A    between atoms: _299  and  _302
REMARK  124  A    between atoms: _302  and  _303
REMARK  125  A    between atoms: _309  and  _311
REMARK  126  A    between atoms: _311  and  _312
REMARK  127  A    between atoms: _311  and  _314
REMARK  128  A    between atoms: _314  and  _315
REMARK  129  A    between atoms: _315  and  _316
REMARK  130  A    between atoms: _316  and  _317
REMARK  131  A    between atoms: _326  and  _328
REMARK  132  A    between atoms: _328  and  _329
REMARK  133  A    between atoms: _328  and  _331
REMARK  134  A    between atoms: _334  and  _336
REMARK  135  A    between atoms: _336  and  _337
REMARK  136  A    between atoms: _336  and  _339
REMARK  137  A    between atoms: _339  and  _340
REMARK  138  A    between atoms: _343  and  _345
REMARK  139  A    between atoms: _345  and  _346
REMARK  140  A    between atoms: _345  and  _348
REMARK  141  A    between atoms: _348  and  _349
REMARK  142  A    between atoms: _352  and  _354
REMARK  143  A    between atoms: _354  and  _355
REMARK  144  A    between atoms: _354  and  _357
REMARK  145  A    between atoms: _357  and  _358
REMARK  146  A    between atoms: _358  and  _359
REMARK  147  A    between atoms: _359  and  _360
REMARK  148  A    between atoms: _369  and  _371
REMARK  149  A    between atoms: _371  and  _372
REMARK  150  A    between atoms: _371  and  _374
REMARK  151  A    between atoms: _374  and  _375
REMARK  152  A    between atoms: _378  and  _380
REMARK  153  A    between atoms: _380  and  _381
REMARK  154  A    between atoms: _380  and  _383
REMARK  155  A    between atoms: _383  and  _384
REMARK  156  A    between atoms: _387  and  _389
REMARK  157  A    between atoms: _389  and  _390
REMARK  158  A    between atoms: _389  and  _392
REMARK  159  A    between atoms: _392  and  _393
REMARK  160  A    between atoms: _398  and  _399
REMARK  161  A    between atoms: _401  and  _403
REMARK  162  A    between atoms: _403  and  _404
REMARK  163  A    between atoms: _403  and  _406
REMARK  164  A    between atoms: _406  and  _407
REMARK  165  A    between atoms: _412  and  _413
REMARK  166  A    between atoms: _415  and  _417
REMARK  167  A    between atoms: _417  and  _418
REMARK  168  A    between atoms: _417  and  _420
REMARK  169  A    between atoms: _420  and  _421
REMARK  170  A    between atoms: _424  and  _426
REMARK  171  A    between atoms: _426  and  _427
REMARK  172  A    between atoms: _426  and  _429
REMARK  173  A    between atoms: _429  and  _430
REMARK  174  A    between atoms: _430  and  _431
REMARK  175  A    between atoms: _436  and  _438
REMARK  176  A    between atoms: _438  and  _439
REMARK  177  A    between atoms: _438  and  _441
REMARK  178  A    between atoms: _444  and  _446
REMARK  179  A    between atoms: _446  and  _447
REMARK  180  A    between atoms: _446  and  _449
REMARK  181  A    between atoms: _449  and  _450
REMARK  182  A    between atoms: _453  and  _455
REMARK  183  A    between atoms: _455  and  _456
REMARK  184  A    between atoms: _455  and  _458
REMARK  185  A    between atoms: _458  and  _459
REMARK  186  A    between atoms: _461  and  _463
REMARK  187  A    between atoms: _463  and  _464
REMARK  188  A    between atoms: _466  and  _468
REMARK  189  A    between atoms: _468  and  _469
REMARK  190  A    between atoms: _468  and  _471
REMARK  191  A    between atoms: _471  and  _472
REMARK  192  A    between atoms: _472  and  _774
REMARK  193  A    between atoms: _473  and  _475
REMARK  194  A    between atoms: _475  and  _476
REMARK  195  A    between atoms: _475  and  _478
REMARK  196  A    between atoms: _478  and  _479
REMARK  197  A    between atoms: _484  and  _485
REMARK  198  A    between atoms: _487  and  _489
REMARK  199  A    between atoms: _489  and  _490
REMARK  200  A    between atoms: _489  and  _492
REMARK  201  A    between atoms: _492  and  _493
REMARK  202  A    between atoms: _493  and  _494
REMARK  203  A    between atoms: _499  and  _501
REMARK  204  A    between atoms: _501  and  _502
REMARK  205  A    between atoms: _501  and  _504
REMARK  206  A    between atoms: _504  and  _505
REMARK  207  A    between atoms: _505  and  _506
REMARK  208  A    between atoms: _511  and  _513
REMARK  209  A    between atoms: _513  and  _514
REMARK  210  A    between atoms: _513  and  _516
REMARK  211  A    between atoms: _516  and  _517
REMARK  212  A    between atoms: _522  and  _523
REMARK  213  A    between atoms: _525  and  _527
REMARK  214  A    between atoms: _527  and  _528
REMARK  215  A    between atoms: _531  and  _533
REMARK  216  A    between atoms: _533  and  _534
REMARK  217  A    between atoms: _533  and  _536
REMARK  218  A    between atoms: _536  and  _537
REMARK  219  A    between atoms: _542  and  _543
REMARK  220  A    between atoms: _545  and  _547
REMARK  221  A    between atoms: _547  and  _548
REMARK  222  A    between atoms: _547  and  _550
REMARK  223  A    between atoms: _550  and  _551
REMARK  224  A    between atoms: _556  and  _557
REMARK  225  A    between atoms: _559  and  _561
REMARK  226  A    between atoms: _561  and  _562
REMARK  227  A    between atoms: _561  and  _564
REMARK  228  A    between atoms: _564  and  _565
REMARK  229  A    between atoms: _568  and  _570
REMARK  230  A    between atoms: _570  and  _571
REMARK  231  A    between atoms: _574  and  _576
REMARK  232  A    between atoms: _576  and  _577
REMARK  233  A    between atoms: _580  and  _582
REMARK  234  A    between atoms: _582  and  _583
REMARK  235  A    between atoms: _582  and  _585
REMARK  236  A    between atoms: _585  and  _586
REMARK  237  A    between atoms: _589  and  _591
REMARK  238  A    between atoms: _591  and  _592
REMARK  239  A    between atoms: _591  and  _594
REMARK  240  A    between atoms: _594  and  _595
REMARK  241  A    between atoms: _598  and  _600
REMARK  242  A    between atoms: _600  and  _601
REMARK  243  A    between atoms: _600  and  _603
REMARK  244  A    between atoms: _603  and  _604
REMARK  245  A    between atoms: _607  and  _609
REMARK  246  A    between atoms: _609  and  _610
REMARK  247  A    between atoms: _609  and  _612
REMARK  248  A    between atoms: _612  and  _613
REMARK  249  A    between atoms: _613  and  _614
REMARK  250  A    between atoms: _614  and  _615
REMARK  251  A    between atoms: _615  and  _616
REMARK  252  A    between atoms: _620  and  _622
REMARK  253  A    between atoms: _622  and  _623
REMARK  254  A    between atoms: _622  and  _625
REMARK  255  A    between atoms: _625  and  _626
REMARK  256  A    between atoms: _631  and  _633
REMARK  257  A    between atoms: _633  and  _634
REMARK  258  A    between atoms: _633  and  _636
REMARK  259  A    between atoms: _636  and  _637
REMARK  260  A    between atoms: _637  and  _638
REMARK  261  A    between atoms: _638  and  _639
REMARK  262  A    between atoms: _639  and  _640
REMARK  263  A    between atoms: _644  and  _646
REMARK  264  A    between atoms: _646  and  _647
REMARK  265  A    between atoms: _646  and  _649
REMARK  266  A    between atoms: _649  and  _650
REMARK  267  A    between atoms: _660  and  _662
REMARK  268  A    between atoms: _662  and  _663
REMARK  269  A    between atoms: _666  and  _668
REMARK  270  A    between atoms: _668  and  _669
REMARK  271  A    between atoms: _671  and  _673
REMARK  272  A    between atoms: _673  and  _674
REMARK  273  A    between atoms: _673  and  _676
REMARK  274  A    between atoms: _676  and  _677
REMARK  275  A    between atoms: _677  and  _678
REMARK  276  A    between atoms: _681  and  _683
REMARK  277  A    between atoms: _683  and  _684
REMARK  278  A    between atoms: _687  and  _689
REMARK  279  A    between atoms: _689  and  _690
REMARK  280  A    between atoms: _689  and  _692
REMARK  281  A    between atoms: _692  and  _693
REMARK  282  A    between atoms: _693  and  _694
REMARK  283  A    between atoms: _694  and  _695
REMARK  284  A    between atoms: _704  and  _706
REMARK  285  A    between atoms: _706  and  _707
REMARK  286  A    between atoms: _706  and  _709
REMARK  287  A    between atoms: _709  and  _710
REMARK  288  A    between atoms: _713  and  _715
REMARK  289  A    between atoms: _715  and  _716
REMARK  290  A    between atoms: _715  and  _718
REMARK  291  A    between atoms: _718  and  _719
REMARK  292  A    between atoms: _719  and  _720
REMARK  293  A    between atoms: _720  and  _721
REMARK  294  A    between atoms: _730  and  _732
REMARK  295  A    between atoms: _732  and  _733
REMARK  296  A    between atoms: _736  and  _738
REMARK  297  A    between atoms: _738  and  _739
REMARK  298  A    between atoms: _738  and  _741
REMARK  299  A    between atoms: _741  and  _742
REMARK  300  A    between atoms: _747  and  _748
REMARK  301  A    between atoms: _750  and  _752
REMARK  302  A    between atoms: _752  and  _753
REMARK  303  A    between atoms: _752  and  _755
REMARK  304  A    between atoms: _755  and  _756
REMARK  305  A    between atoms: _759  and  _761
REMARK  306  A    between atoms: _761  and  _762
REMARK  307  A    between atoms: _761  and  _764
REMARK  308  A    between atoms: _764  and  _765
REMARK  309  A    between atoms: _768  and  _770
REMARK  310  A    between atoms: _770  and  _771
REMARK  311  A    between atoms: _770  and  _773
REMARK  312  A    between atoms: _773  and  _774
REMARK  313  A    between atoms: _775  and  _777
REMARK  314  A    between atoms: _777  and  _778
REMARK  315  A    between atoms: _777  and  _780
REMARK  316  A    between atoms: _783  and  _785
REMARK  317  A    between atoms: _785  and  _786
REMARK  318  A    between atoms: _785  and  _788
REMARK  319  A    between atoms: _788  and  _789
REMARK  320  A    between atoms: _789  and  _790
REMARK  321  A    between atoms: _793  and  _795
REMARK  322  A    between atoms: _795  and  _796
REMARK  323  A    between atoms: _795  and  _798
REMARK  324  A    between atoms: _798  and  _799
REMARK  325  A    between atoms: _809  and  _811
REMARK  326  A    between atoms: _811  and  _812
REMARK  327  A    between atoms: _811  and  _814
REMARK  328  A    between atoms: _814  and  _815
REMARK  329  A    between atoms: _818  and  _820
REMARK  330  A    between atoms: _820  and  _821
REMARK  331  A    between atoms: _820  and  _823
REMARK  332  A    between atoms: _823  and  _824
REMARK  333  A    between atoms: _829  and  _830
REMARK                            x       y       z     vdW  Elec       q    Type
REMARK                         _______ _______ _______ _____ _____    ______ ____
ROOT
ATOM      1  C   TYR A   1     -15.684  25.402  21.262  0.00  0.00    +0.239 C 
ATOM      2  O   TYR A   1     -15.191  26.474  21.609  0.00  0.00    -0.274 OA
ATOM      3  N   TYR A   2     -15.330  24.790  20.139  0.00  0.00    -0.298 N 
ATOM      4  H   TYR A   2     -15.862  23.957  19.816  0.00  0.00    +0.150 HD
ENDROOT
BRANCH   1   5
ATOM      5  CA  TYR A   1     -16.730  24.702  22.133  0.00  0.00    +0.149 C 
BRANCH   5   6
ATOM      6  N   TYR A   1     -17.771  24.075  21.333  0.00  0.00    -0.238 NA
ATOM      7  H   TYR A   1     -18.058  23.098  21.545  0.00  0.00    +0.142 HD
ENDBRANCH   5   6
BRANCH   5   8
ATOM      8  CB  TYR A   1     -16.014  23.667  23.004  0.00  0.00    +0.053 C 
BRANCH   8   9
ATOM      9  CG  TYR A   1     -16.776  23.125  24.203  0.00  0.00    -0.020 A 
ATOM     10  CD2 TYR A   1     -16.206  22.147  25.000  0.00  0.00    -0.001 A 
ATOM     11  CE2 TYR A   1     -16.864  21.626  26.088  0.00  0.00    +0.036 A 
ATOM     12  CZ  TYR A   1     -18.110  22.082  26.414  0.00  0.00    +0.134 A 
ATOM     13  CE1 TYR A   1     -18.721  23.063  25.635  0.00  0.00    +0.036 A 
ATOM     14  CD1 TYR A   1     -18.045  23.578  24.536  0.00  0.00    -0.001 A 
BRANCH  12  15
ATOM     15  OH  TYR A   1     -18.731  21.537  27.520  0.00  0.00    -0.506 OA
ATOM     16  HH  TYR A   1     -18.840  20.562  27.389  0.00  0.00    +0.292 HD
ENDBRANCH  12  15
ENDBRANCH   8   9
ENDBRANCH   5   8
ENDBRANCH   1   5
BRANCH   3  17
ATOM     17  CA  TYR A   2     -14.198  25.278  19.352  0.00  0.00    +0.141 C 
BRANCH  17  18
ATOM     18  C   TYR A   2     -14.599  26.044  18.101  0.00  0.00    +0.227 C 
ATOM     19  O   TYR A   2     -13.736  26.486  17.342  0.00  0.00    -0.286 OA
ENDBRANCH  17  18
BRANCH  17  20
ATOM     20  CB  TYR A   2     -13.283  24.125  18.945  0.00  0.00    +0.054 C 
BRANCH  20  21
ATOM     21  CG  TYR A   2     -12.411  23.598  20.053  0.00  0.00    -0.020 A 
ATOM     22  CD2 TYR A   2     -12.802  22.496  20.796  0.00  0.00    -0.001 A 
ATOM     23  CE2 TYR A   2     -12.010  21.994  21.800  0.00  0.00    +0.036 A 
ATOM     24  CZ  TYR A   2     -10.802  22.584  22.078  0.00  0.00    +0.134 A 
ATOM     25  CE1 TYR A   2     -10.381  23.686  21.357  0.00  0.00    +0.036 A 
ATOM     26  CD1 TYR A   2     -11.186  24.187  20.346  0.00  0.00    -0.001 A 
BRANCH  24  27
ATOM     27  OH  TYR A   2     -10.032  22.066  23.093  0.00  0.00    -0.506 OA
ATOM     28  HH  TYR A   2      -9.197  22.592  23.174  0.00  0.00    +0.292 HD
ENDBRANCH  24  27
ENDBRANCH  20  21
ENDBRANCH  17  20
ENDBRANCH   3  17
TORSDOF 10
REMARK  Name = ../refined-set-2016/3p9l/3p9l_pocket.pdb
REMARK  333 active torsions:
REMARK  status: ('A' for Active; 'I' for Inactive)
REMARK    1  A    between atoms: _1  and  _3
REMARK    2  A    between atoms: _3  and  _4
REMARK    3  A    between atoms: _3  and  _6
REMARK    4  A    between atoms: _6  and  _7
REMARK    5  A    between atoms: _10  and  _12
REMARK    6  A    between atoms: _12  and  _13
REMARK    7  A    between atoms: _12  and  _15
REMARK    8  A    between atoms: _15  and  _16
REMARK    9  A    between atoms: _16  and  _17
REMARK   10  A    between atoms: _17  and  _18
REMARK   11  A    between atoms: _27  and  _29
REMARK   12  A    between atoms: _29  and  _30
REMARK   13  A    between atoms: _29  and  _32
REMARK   14  A    between atoms: _32  and  _33
REMARK   15  A    between atoms: _38  and  _39
REMARK   16  A    between atoms: _41  and  _43
REMARK   17  A    between atoms: _43  and  _44
REMARK   18  A    between atoms: _43  and  _46
REMARK   19  A    between atoms: _46  and  _47
REMARK   20  A    between atoms: _53  and  _55
REMARK   21  A    between atoms: _55  and  _56
REMARK   22  A    between atoms: _55  and  _58
REMARK   23  A    between atoms: _61  and  _63
REMARK   24  A    between atoms: _63  and  _64
REMARK   25  A    between atoms: _63  and  _66
REMARK   26  A    between atoms: _66  and  _67
REMARK   27  A    between atoms: _70  and  _72
REMARK   28  A    between atoms: _72  and  _73
REMARK   29  A    between atoms: _72  and  _75
REMARK   30  A    between atoms: _75  and  _76
REMARK   31  A    between atoms: _81  and  _82
REMARK   32  A    between atoms: _84  and  _86
REMARK   33  A    between atoms: _86  and  _87
REMARK   34  A    between atoms: _86  and  _89
REMARK   35  A    between atoms: _89  and  _90
REMARK   36  A    between atoms: _90  and  _91
REMARK   37  A    between atoms: _93  and  _95
REMARK   38  A    between atoms: _95  and  _96
REMARK   39  A    between atoms: _95  and  _98
REMARK   40  A    between atoms: _98  and  _99
REMARK   41  A    between atoms: _99  and  _100
REMARK   42  A    between atoms: _103  and  _105
REMARK   43  A    between atoms: _105  and  _106
REMARK   44  A    between atoms: _105  and  _108
REMARK   45  A    between atoms: _111  and  _113
REMARK   46  A    between atoms: _113  and  _114
REMARK   47  A    between atoms: _116  and  _118
REMARK   48  A    between atoms: _118  and  _119
REMARK   49  A    between atoms: _118  and  _121
REMARK   50  A    between atoms: _124  and  _126
REMARK   51  A    between atoms: _126  and  _127
REMARK   52  A    between atoms: _126  and  _129
REMARK   53  A    between atoms: _129  and  _130
REMARK   54  A    between atoms: _136  and  _138
REMARK   55  A    between atoms: _138  and  _139
REMARK   56  A    between atoms: _138  and  _141
REMARK   57  A    between atoms: _144  and  _146
REMARK   58  A    between atoms: _146  and  _147
REMARK   59  A    between atoms: _146  and  _149
REMARK   60  A    between atoms: _149  and  _150
REMARK   61  A    between atoms: _156  and  _158
REMARK   62  A    between atoms: _158  and  _159
REMARK   63  A    between atoms: _158  and  _161
REMARK   64  A    between atoms: _161  and  _162
REMARK   65  A    between atoms: _167  and  _168
REMARK   66  A    between atoms: _170  and  _172
REMARK   67  A    between atoms: _172  and  _173
REMARK   68  A    between atoms: _172  and  _175
REMARK   69  A    between atoms: _175  and  _176
REMARK   70  A    between atoms: _176  and  _177
REMARK   71  A    between atoms: _179  and  _181
REMARK   72  A    between atoms: _181  and  _182
REMARK   73  A    between atoms: _181  and  _184
REMARK   74  A    between atoms: _184  and  _185
REMARK   75  A    between atoms: _190  and  _191
REMARK   76  A    between atoms: _193  and  _195
REMARK   77  A    between atoms: _195  and  _196
REMARK   78  A    between atoms: _195  and  _198
REMARK   79  A    between atoms: _198  and  _199
REMARK   80  A    between atoms: _199  and  _200
REMARK   81  A    between atoms: _200  and  _201
REMARK   82  A    between atoms: _210  and  _212
REMARK   83  A    between atoms: _212  and  _213
REMARK   84  A    between atoms: _212  and  _215
REMARK   85  A    between atoms: _215  and  _216
REMARK   86  A    between atoms: _216  and  _217
REMARK   87  A    between atoms: _220  and  _222
REMARK   88  A    between atoms: _222  and  _223
REMARK   89  A    between atoms: _222  and  _225
REMARK   90  A    between atoms: _225  and  _226
REMARK   91  A    between atoms: _226  and  _227
REMARK   92  A    between atoms: _232  and  _234
REMARK   93  A    between atoms: _234  and  _235
REMARK   94  A    between atoms: _234  and  _237
REMARK   95  A    between atoms: _237  and  _238
REMARK   96  A    between atoms: _238  and  _239
REMARK   97  A    between atoms: _239  and  _240
REMARK   98  A    between atoms: _240  and  _241
REMARK   99  A    between atoms: _245  and  _247
REMARK  100  A    between atoms: _247  and  _248
REMARK  101  A    between atoms: _251  and  _253
REMARK  102  A    between atoms: _253  and  _254
REMARK  103  A    between atoms: _256  and  _258
REMARK  104  A    between atoms: _258  and  _259
REMARK  105  A    between atoms: _258  and  _261
REMARK  106  A    between atoms: _261  and  _262
REMARK  107  A    between atoms: _267  and  _269
REMARK  108  A    between atoms: _269  and  _270
REMARK  109  A    between atoms: _269  and  _272
REMARK  110  A    between atoms: _272  and  _273
REMARK  111  A    between atoms: _273  and  _274
REMARK  112  A    between atoms: _277  and  _279
REMARK  113  A    between atoms: _279  and  _280
REMARK  114  A    between atoms: _279  and  _282
REMARK  115  A    between atoms: _282  and  _283
REMARK  116  A    between atoms: _283  and  _284
REMARK  117  A    between atoms: _289  and  _291
REMARK  118  A    between atoms: _291  and  _292
REMARK  119  A    between atoms: _291  and  _294
REMARK  120  A    between atoms: _294  and  _295
REMARK  121  A    between atoms: _297  and  _299
REMARK  122  A    between atoms: _299  and  _300
REMARK  123  A    between atoms: _299  and  _302
REMARK  124  A    between atoms: _302  and  _303
REMARK  125  A    between atoms: _309  and  _311
REMARK  126  A    between atoms: _311  and  _312
REMARK  127  A    between atoms: _311  and  _314
REMARK  128  A    between atoms: _314  and  _315
REMARK  129  A    between atoms: _315  and  _316
REMARK  130  A    between atoms: _316  and  _317
REMARK  131  A    between atoms: _326  and  _328
REMARK  132  A    between atoms: _328  and  _329
REMARK  133  A    between atoms: _328  and  _331
REMARK  134  A    between atoms: _334  and  _336
REMARK  135  A    between atoms: _336  and  _337
REMARK  136  A    between atoms: _336  and  _339
REMARK  137  A    between atoms: _339  and  _340
REMARK  138  A    between atoms: _343  and  _345
REMARK  139  A    between atoms: _345  and  _346
REMARK  140  A    between atoms: _345  and  _348
REMARK  141  A    between atoms: _348  and  _349
REMARK  142  A    between atoms: _352  and  _354
REMARK  143  A    between atoms: _354  and  _355
REMARK  144  A    between atoms: _354  and  _357
REMARK  145  A    between atoms: _357  and  _358
REMARK  146  A    between atoms: _358  and  _359
REMARK  147  A    between atoms: _359  and  _360
REMARK  148  A    between atoms: _369  and  _371
REMARK  149  A    between atoms: _371  and  _372
REMARK  150  A    between atoms: _371  and  _374
REMARK  151  A    between atoms: _374  and  _375
REMARK  152  A    between atoms: _378  and  _380
REMARK  153  A    between atoms: _380  and  _381
REMARK  154  A    between atoms: _380  and  _383
REMARK  155  A    between atoms: _383  and  _384
REMARK  156  A    between atoms: _387  and  _389
REMARK  157  A    between atoms: _389  and  _390
REMARK  158  A    between atoms: _389  and  _392
REMARK  159  A    between atoms: _392  and  _393
REMARK  160  A    between atoms: _398  and  _399
REMARK  161  A    between atoms: _401  and  _403
REMARK  162  A    between atoms: _403  and  _404
REMARK  163  A    between atoms: _403  and  _406
REMARK  164  A    between atoms: _406  and  _407
REMARK  165  A    between atoms: _412  and  _413
REMARK  166  A    between atoms: _415  and  _417
REMARK  167  A    between atoms: _417  and  _418
REMARK  168  A    between atoms: _417  and  _420
REMARK  169  A    between atoms: _420  and  _421
REMARK  170  A    between atoms: _424  and  _426
REMARK  171  A    between atoms: _426  and  _427
REMARK  172  A    between atoms: _426  and  _429
REMARK  173  A    between atoms: _429  and  _430
REMARK  174  A    between atoms: _430  and  _431
REMARK  175  A    between atoms: _436  and  _438
REMARK  176  A    between atoms: _438  and  _439
REMARK  177  A    between atoms: _438  and  _441
REMARK  178  A    between atoms: _444  and  _446
REMARK  179  A    between atoms: _446  and  _447
REMARK  180  A    between atoms: _446  and  _449
REMARK  181  A    between atoms: _449  and  _450
REMARK  182  A    between atoms: _453  and  _455
REMARK  183  A    between atoms: _455  and  _456
REMARK  184  A    between atoms: _455  and  _458
REMARK  185  A    between atoms: _458  and  _459
REMARK  186  A    between atoms: _461  and  _463
REMARK  187  A    between atoms: _463  and  _464
REMARK  188  A    between atoms: _466  and  _468
REMARK  189  A    between atoms: _468  and  _469
REMARK  190  A    between atoms: _468  and  _471
REMARK  191  A    between atoms: _471  and  _472
REMARK  192  A    between atoms: _472  and  _774
REMARK  193  A    between atoms: _473  and  _475
REMARK  194  A    between atoms: _475  and  _476
REMARK  195  A    between atoms: _475  and  _478
REMARK  196  A    between atoms: _478  and  _479
REMARK  197  A    between atoms: _484  and  _485
REMARK  198  A    between atoms: _487  and  _489
REMARK  199  A    between atoms: _489  and  _490
REMARK  200  A    between atoms: _489  and  _492
REMARK  201  A    between atoms: _492  and  _493
REMARK  202  A    between atoms: _493  and  _494
REMARK  203  A    between atoms: _499  and  _501
REMARK  204  A    between atoms: _501  and  _502
REMARK  205  A    between atoms: _501  and  _504
REMARK  206  A    between atoms: _504  and  _505
REMARK  207  A    between atoms: _505  and  _506
REMARK  208  A    between atoms: _511  and  _513
REMARK  209  A    between atoms: _513  and  _514
REMARK  210  A    between atoms: _513  and  _516
REMARK  211  A    between atoms: _516  and  _517
REMARK  212  A    between atoms: _522  and  _523
REMARK  213  A    between atoms: _525  and  _527
REMARK  214  A    between atoms: _527  and  _528
REMARK  215  A    between atoms: _531  and  _533
REMARK  216  A    between atoms: _533  and  _534
REMARK  217  A    between atoms: _533  and  _536
REMARK  218  A    between atoms: _536  and  _537
REMARK  219  A    between atoms: _542  and  _543
REMARK  220  A    between atoms: _545  and  _547
REMARK  221  A    between atoms: _547  and  _548
REMARK  222  A    between atoms: _547  and  _550
REMARK  223  A    between atoms: _550  and  _551
REMARK  224  A    between atoms: _556  and  _557
REMARK  225  A    between atoms: _559  and  _561
REMARK  226  A    between atoms: _561  and  _562
REMARK  227  A    between atoms: _561  and  _564
REMARK  228  A    between atoms: _564  and  _565
REMARK  229  A    between atoms: _568  and  _570
REMARK  230  A    between atoms: _570  and  _571
REMARK  231  A    between atoms: _574  and  _576
REMARK  232  A    between atoms: _576  and  _577
REMARK  233  A    between atoms: _580  and  _582
REMARK  234  A    between atoms: _582  and  _583
REMARK  235  A    between atoms: _582  and  _585
REMARK  236  A    between atoms: _585  and  _586
REMARK  237  A    between atoms: _589  and  _591
REMARK  238  A    between atoms: _591  and  _592
REMARK  239  A    between atoms: _591  and  _594
REMARK  240  A    between atoms: _594  and  _595
REMARK  241  A    between atoms: _598  and  _600
REMARK  242  A    between atoms: _600  and  _601
REMARK  243  A    between atoms: _600  and  _603
REMARK  244  A    between atoms: _603  and  _604
REMARK  245  A    between atoms: _607  and  _609
REMARK  246  A    between atoms: _609  and  _610
REMARK  247  A    between atoms: _609  and  _612
REMARK  248  A    between atoms: _612  and  _613
REMARK  249  A    between atoms: _613  and  _614
REMARK  250  A    between atoms: _614  and  _615
REMARK  251  A    between atoms: _615  and  _616
REMARK  252  A    between atoms: _620  and  _622
REMARK  253  A    between atoms: _622  and  _623
REMARK  254  A    between atoms: _622  and  _625
REMARK  255  A    between atoms: _625  and  _626
REMARK  256  A    between atoms: _631  and  _633
REMARK  257  A    between atoms: _633  and  _634
REMARK  258  A    between atoms: _633  and  _636
REMARK  259  A    between atoms: _636  and  _637
REMARK  260  A    between atoms: _637  and  _638
REMARK  261  A    between atoms: _638  and  _639
REMARK  262  A    between atoms: _639  and  _640
REMARK  263  A    between atoms: _644  and  _646
REMARK  264  A    between atoms: _646  and  _647
REMARK  265  A    between atoms: _646  and  _649
REMARK  266  A    between atoms: _649  and  _650
REMARK  267  A    between atoms: _660  and  _662
REMARK  268  A    between atoms: _662  and  _663
REMARK  269  A    between atoms: _666  and  _668
REMARK  270  A    between atoms: _668  and  _669
REMARK  271  A    between atoms: _671  and  _673
REMARK  272  A    between atoms: _673  and  _674
REMARK  273  A    between atoms: _673  and  _676
REMARK  274  A    between atoms: _676  and  _677
REMARK  275  A    between atoms: _677  and  _678
REMARK  276  A    between atoms: _681  and  _683
REMARK  277  A    between atoms: _683  and  _684
REMARK  278  A    between atoms: _687  and  _689
REMARK  279  A    between atoms: _689  and  _690
REMARK  280  A    between atoms: _689  and  _692
REMARK  281  A    between atoms: _692  and  _693
REMARK  282  A    between atoms: _693  and  _694
REMARK  283  A    between atoms: _694  and  _695
REMARK  284  A    between atoms: _704  and  _706
REMARK  285  A    between atoms: _706  and  _707
REMARK  286  A    between atoms: _706  and  _709
REMARK  287  A    between atoms: _709  and  _710
REMARK  288  A    between atoms: _713  and  _715
REMARK  289  A    between atoms: _715  and  _716
REMARK  290  A    between atoms: _715  and  _718
REMARK  291  A    between atoms: _718  and  _719
REMARK  292  A    between atoms: _719  and  _720
REMARK  293  A    between atoms: _720  and  _721
REMARK  294  A    between atoms: _730  and  _732
REMARK  295  A    between atoms: _732  and  _733
REMARK  296  A    between atoms: _736  and  _738
REMARK  297  A    between atoms: _738  and  _739
REMARK  298  A    between atoms: _738  and  _741
REMARK  299  A    between atoms: _741  and  _742
REMARK  300  A    between atoms: _747  and  _748
REMARK  301  A    between atoms: _750  and  _752
REMARK  302  A    between atoms: _752  and  _753
REMARK  303  A    between atoms: _752  and  _755
REMARK  304  A    between atoms: _755  and  _756
REMARK  305  A    between atoms: _759  and  _761
REMARK  306  A    between atoms: _761  and  _762
REMARK  307  A    between atoms: _761  and  _764
REMARK  308  A    between atoms: _764  and  _765
REMARK  309  A    between atoms: _768  and  _770
REMARK  310  A    between atoms: _770  and  _771
REMARK  311  A    between atoms: _770  and  _773
REMARK  312  A    between atoms: _773  and  _774
REMARK  313  A    between atoms: _775  and  _777
REMARK  314  A    between atoms: _777  and  _778
REMARK  315  A    between atoms: _777  and  _780
REMARK  316  A    between atoms: _783  and  _785
REMARK  317  A    between atoms: _785  and  _786
REMARK  318  A    between atoms: _785  and  _788
REMARK  319  A    between atoms: _788  and  _789
REMARK  320  A    between atoms: _789  and  _790
REMARK  321  A    between atoms: _793  and  _795
REMARK  322  A    between atoms: _795  and  _796
REMARK  323  A    between atoms: _795  and  _798
REMARK  324  A    between atoms: _798  and  _799
REMARK  325  A    between atoms: _809  and  _811
REMARK  326  A    between atoms: _811  and  _812
REMARK  327  A    between atoms: _811  and  _814
REMARK  328  A    between atoms: _814  and  _815
REMARK  329  A    between atoms: _818  and  _820
REMARK  330  A    between atoms: _820  and  _821
REMARK  331  A    between atoms: _820  and  _823
REMARK  332  A    between atoms: _823  and  _824
REMARK  333  A    between atoms: _829  and  _830
REMARK                            x       y       z     vdW  Elec       q    Type
REMARK                         _______ _______ _______ _____ _____    ______ ____
ROOT
ATOM      1  SG  CYS A   2      -7.786   0.986  37.423  0.00  0.00    -0.080 S 
ENDROOT
BRANCH   1   2
ATOM      2  SG  CYS A   7      -6.034   0.401  38.360  0.00  0.00    -0.080 S 
BRANCH   2   3
ATOM      3  CB  CYS A   7      -5.360   2.043  38.815  0.00  0.00    +0.096 C 
BRANCH   3   4
ATOM      4  CA  CYS A   7      -4.410   2.666  37.786  0.00  0.00    +0.149 C 
BRANCH   4   6
ATOM      5  C   LEU A   6      -5.534   3.764  35.927  0.00  0.00    +0.243 C 
ATOM      6  N   CYS A   7      -5.020   2.668  36.468  0.00  0.00    -0.297 N 
ATOM      7  H   CYS A   7      -5.055   1.779  35.930  0.00  0.00    +0.150 HD
ATOM      8  O   LEU A   6      -5.490   4.873  36.463  0.00  0.00    -0.273 OA
BRANCH   5   9
ATOM      9  CA  LEU A   6      -6.189   3.559  34.579  0.00  0.00    +0.176 C 
BRANCH   9  11
ATOM     10  C   TRP A   5      -7.079   4.687  32.663  0.00  0.00    +0.243 C 
ATOM     11  N   LEU A   6      -6.695   4.751  33.933  0.00  0.00    -0.295 N 
ATOM     12  H   LEU A   6      -6.757   5.647  34.457  0.00  0.00    +0.150 HD
ATOM     13  O   TRP A   5      -6.990   3.647  31.996  0.00  0.00    -0.273 OA
BRANCH  10  14
ATOM     14  CA  TRP A   5      -7.613   5.966  32.034  0.00  0.00    +0.178 C 
BRANCH  14  17
ATOM     15  C   GLU A   4      -6.589   7.271  30.244  0.00  0.00    +0.241 C 
ATOM     16  O   GLU A   4      -6.667   8.318  30.887  0.00  0.00    -0.273 OA
ATOM     17  N   TRP A   5      -6.974   6.099  30.730  0.00  0.00    -0.295 N 
ATOM     18  H   TRP A   5      -6.814   5.244  30.161  0.00  0.00    +0.150 HD
BRANCH  15  19
ATOM     19  CA  GLU A   4      -6.093   7.270  28.795  0.00  0.00    +0.149 C 
BRANCH  19  21
ATOM     20  C   VAL A   3      -7.597   7.996  27.031  0.00  0.00    +0.241 C 
ATOM     21  N   GLU A   4      -6.878   8.274  28.112  0.00  0.00    -0.297 N 
ATOM     22  H   GLU A   4      -6.879   9.247  28.480  0.00  0.00    +0.150 HD
ATOM     23  O   VAL A   3      -7.518   6.934  26.393  0.00  0.00    -0.273 OA
BRANCH  20  24
ATOM     24  CA  VAL A   3      -8.533   9.092  26.606  0.00  0.00    +0.149 C 
BRANCH  24  26
ATOM     25  C   CYS A   2      -8.590  10.248  24.507  0.00  0.00    +0.241 C 
ATOM     26  N   VAL A   3      -8.599   9.103  25.168  0.00  0.00    -0.297 N 
ATOM     27  H   VAL A   3      -8.654   8.205  24.646  0.00  0.00    +0.150 HD
ATOM     28  O   CYS A   2      -8.603  11.348  25.063  0.00  0.00    -0.273 OA
BRANCH  25  29
ATOM     29  CA  CYS A   2      -8.568  10.133  23.008  0.00  0.00    +0.149 C 
BRANCH  29  31
ATOM     30  C   THR A   1     -10.272  11.068  21.574  0.00  0.00    +0.238 C 
ATOM     31  N   CYS A   2      -9.276  11.262  22.429  0.00  0.00    -0.297 N 
ATOM     32  H   CYS A   2      -9.000  12.231  22.687  0.00  0.00    +0.150 HD
ATOM     33  O   THR A   1     -10.540   9.962  21.104  0.00  0.00    -0.274 OA
BRANCH  30  34
ATOM     34  CA  THR A   1     -11.047  12.304  21.149  0.00  0.00    +0.145 C 
BRANCH  34  35
ATOM     35  N   THR A   1     -11.248  12.227  19.711  0.00  0.00    -0.238 NA
ATOM     36  H   THR A   1     -11.879  11.499  19.319  0.00  0.00    +0.142 HD
ENDBRANCH  34  35
BRANCH  34  37
ATOM     37  CB  THR A   1     -12.386  12.354  21.919  0.00  0.00    +0.025 C 
ATOM     38  CG2 THR A   1     -12.139  12.396  23.417  0.00  0.00    +0.002 C 
BRANCH  37  39
ATOM     39  CG1 THR A   1     -13.207  13.572  21.495  0.00  0.00    +0.002 C 
ATOM     40  CD1 THR A   1     -14.652  13.565  22.047  0.00  0.00    +0.000 C 
ENDBRANCH  37  39
ENDBRANCH  34  37
ENDBRANCH  30  34
ENDBRANCH  29  31
BRANCH  29  41
ATOM     41  CB  CYS A   2      -7.124  10.077  22.515  0.00  0.00    +0.039 C 
BRANCH  41  42
ATOM     42  CG  CYS A   2      -7.028   9.821  21.039  0.00  0.00    +0.087 C 
BRANCH  42  43
ATOM     43  CD  CYS A   2      -5.681  10.223  20.494  0.00  0.00    +0.219 C 
ATOM     44  NE2 CYS A   2      -4.737   9.291  20.506  0.00  0.00    -0.329 N 
ATOM     45 HE21 CYS A   2      -4.952   8.338  20.863  0.00  0.00    +0.145 HD
ATOM     46 HE22 CYS A   2      -3.782   9.513  20.159  0.00  0.00    +0.145 HD
ATOM     47  OE1 CYS A   2      -5.483  11.371  20.082  0.00  0.00    -0.275 OA
ENDBRANCH  42  43
ENDBRANCH  41  42
ENDBRANCH  29  41
ENDBRANCH  25  29
ENDBRANCH  24  26
BRANCH  24  48
ATOM     48  CB  VAL A   3      -9.911   8.821  27.256  0.00  0.00    +0.027 C 
ATOM     49  CG2 VAL A   3      -9.843   9.084  28.759  0.00  0.00    +0.002 C 
ATOM     50  CG1 VAL A   3     -10.963   9.689  26.637  0.00  0.00    +0.002 C 
ENDBRANCH  24  48
ENDBRANCH  20  24
ENDBRANCH  19  21
BRANCH  19  51
ATOM     51  CB  GLU A   4      -4.591   7.592  28.699  0.00  0.00    +0.027 C 
ATOM     52  CG2 GLU A   4      -3.812   6.781  29.679  0.00  0.00    +0.002 C 
BRANCH  51  53
ATOM     53  CG1 GLU A   4      -4.072   7.275  27.292  0.00  0.00    +0.002 C 
ATOM     54  CD1 GLU A   4      -2.595   7.626  27.101  0.00  0.00    +0.000 C 
ENDBRANCH  51  53
ENDBRANCH  19  51
ENDBRANCH  15  19
ENDBRANCH  14  17
BRANCH  14  55
ATOM     55  CB  TRP A   5      -9.142   5.879  31.857  0.00  0.00    +0.166 C 
BRANCH  55  56
ATOM     56  O   TRP A   5      -9.825   5.860  33.096  0.00  0.00    -0.380 OA
ATOM     57  H   TRP A   5      -9.620   6.689  33.597  0.00  0.00    +0.211 HD
ENDBRANCH  55  56
ENDBRANCH  14  55
ENDBRANCH  10  14
ENDBRANCH   9  11
ENDBRANCH   5   9
ENDBRANCH   4   6
BRANCH   4  58
ATOM     58  C   CYS A   7      -3.117   1.876  37.752  0.00  0.00    +0.228 C 
ATOM     59  O   CYS A   7      -3.061   0.783  37.188  0.00  0.00    -0.286 OA
ENDBRANCH   4  58
ENDBRANCH   3   4
ENDBRANCH   2   3
ENDBRANCH   1   2
BRANCH   1  60
ATOM     60  CB  CYS A   2      -9.083   1.126  38.722  0.00  0.00    +0.098 C 
BRANCH  60  61
ATOM     61  CA  CYS A   2      -9.829  -0.174  39.043  0.00  0.00    +0.160 C 
BRANCH  61  62
ATOM     62  N   CYS A   2     -10.972   0.097  39.912  0.00  0.00    -0.296 N 
ATOM     63  C   THR A   1     -11.731  -0.894  40.371  0.00  0.00    +0.241 C 
ATOM     64  O   THR A   1     -11.496  -2.079  40.127  0.00  0.00    -0.274 OA
ATOM     65  H   CYS A   2     -11.195   1.078  40.175  0.00  0.00    +0.150 HD
BRANCH  63  66
ATOM     66  CA  THR A   1     -12.937  -0.497  41.214  0.00  0.00    +0.172 C 
BRANCH  66  67
ATOM     67  CB  THR A   1     -13.922   0.283  40.334  0.00  0.00    +0.135 C 
ATOM     68  CG2 THR A   1     -14.456  -0.590  39.226  0.00  0.00    +0.034 C 
BRANCH  67  69
ATOM     69  OG1 THR A   1     -15.004   0.745  41.148  0.00  0.00    -0.383 OA
ATOM     70  HG1 THR A   1     -15.645   1.250  40.587  0.00  0.00    +0.210 HD
ENDBRANCH  67  69
ENDBRANCH  66  67
BRANCH  66  71
ATOM     71  N   THR A   1     -12.586   0.302  42.379  0.00  0.00    -0.236 NA
ATOM     72  H   THR A   1     -13.149   1.152  42.585  0.00  0.00    +0.142 HD
ENDBRANCH  66  71
ENDBRANCH  63  66
ENDBRANCH  61  62
BRANCH  61  73
ATOM     73  C   CYS A   2      -8.889  -1.193  39.695  0.00  0.00    +0.242 C 
ATOM     74  N   VAL A   3      -8.570  -0.947  40.961  0.00  0.00    -0.297 N 
ATOM     75  H   VAL A   3      -8.991  -0.113  41.418  0.00  0.00    +0.150 HD
ATOM     76  O   CYS A   2      -8.472  -2.168  39.067  0.00  0.00    -0.273 OA
BRANCH  74  77
ATOM     77  CA  VAL A   3      -7.663  -1.778  41.749  0.00  0.00    +0.149 C 
BRANCH  77  78
ATOM     78  C   VAL A   3      -8.213  -3.194  41.952  0.00  0.00    +0.241 C 
ATOM     79  N   GLU A   4      -9.501  -3.284  42.251  0.00  0.00    -0.297 N 
ATOM     80  H   GLU A   4     -10.070  -2.414  42.288  0.00  0.00    +0.150 HD
ATOM     81  O   VAL A   3      -7.491  -4.181  41.819  0.00  0.00    -0.273 OA
BRANCH  79  82
ATOM     82  CA  GLU A   4     -10.146  -4.557  42.529  0.00  0.00    +0.149 C 
BRANCH  82  83
ATOM     83  C   GLU A   4     -10.261  -5.411  41.273  0.00  0.00    +0.241 C 
ATOM     84  O   GLU A   4     -10.076  -6.626  41.317  0.00  0.00    -0.273 OA
ATOM     85  N   TRP A   5     -10.562  -4.775  40.147  0.00  0.00    -0.297 N 
ATOM     86  H   TRP A   5     -10.776  -3.757  40.169  0.00  0.00    +0.150 HD
BRANCH  85  87
ATOM     87  CA  TRP A   5     -10.594  -5.491  38.887  0.00  0.00    +0.153 C 
BRANCH  87  88
ATOM     88  C   TRP A   5      -9.205  -5.985  38.502  0.00  0.00    +0.241 C 
ATOM     89  N   LEU A   6      -8.196  -5.133  38.660  0.00  0.00    -0.298 N 
ATOM     90  H   LEU A   6      -8.379  -4.182  39.039  0.00  0.00    +0.150 HD
ATOM     91  O   TRP A   5      -9.046  -7.135  38.096  0.00  0.00    -0.273 OA
BRANCH  89  92
ATOM     92  CA  LEU A   6      -6.837  -5.519  38.307  0.00  0.00    +0.137 C 
BRANCH  92  93
ATOM     93  C   LEU A   6      -6.442  -6.778  39.072  0.00  0.00    +0.227 C 
ATOM     94  O   LEU A   6      -5.867  -7.713  38.507  0.00  0.00    -0.286 OA
ENDBRANCH  92  93
BRANCH  92  95
ATOM     95  CB  LEU A   6      -5.842  -4.399  38.612  0.00  0.00    +0.028 C 
BRANCH  95  96
ATOM     96  CG  LEU A   6      -4.358  -4.767  38.436  0.00  0.00    +0.002 C 
ATOM     97  CD2 LEU A   6      -3.462  -3.582  38.747  0.00  0.00    +0.000 C 
ATOM     98  CD1 LEU A   6      -4.044  -5.301  37.036  0.00  0.00    +0.000 C 
ENDBRANCH  95  96
ENDBRANCH  92  95
ENDBRANCH  89  92
ENDBRANCH  87  88
BRANCH  87  99
ATOM     99  CB  TRP A   5     -11.236  -4.638  37.782  0.00  0.00    +0.057 C 
BRANCH  99 100
ATOM    100  CG  TRP A   5     -12.737  -4.692  37.806  0.00  0.00    -0.002 A 
ATOM    101  CD1 TRP A   5     -13.591  -3.704  38.214  0.00  0.00    +0.068 A 
ATOM    102  NE1 TRP A   5     -14.896  -4.126  38.088  0.00  0.00    -0.352 N 
ATOM    103  HE1 TRP A   5     -15.738  -3.565  38.327  0.00  0.00    +0.166 HD
ATOM    104  CE2 TRP A   5     -14.904  -5.406  37.597  0.00  0.00    +0.056 A 
ATOM    105  CZ2 TRP A   5     -15.974  -6.247  37.301  0.00  0.00    +0.017 A 
ATOM    106  CH2 TRP A   5     -15.679  -7.488  36.806  0.00  0.00    +0.001 A 
ATOM    107  CZ3 TRP A   5     -14.355  -7.904  36.609  0.00  0.00    +0.000 A 
ATOM    108  CE3 TRP A   5     -13.296  -7.075  36.900  0.00  0.00    +0.001 A 
ATOM    109  CD2 TRP A   5     -13.563  -5.795  37.406  0.00  0.00    +0.013 A 
ENDBRANCH  99 100
ENDBRANCH  87  99
ENDBRANCH  85  87
ENDBRANCH  82  83
BRANCH  82 110
ATOM    110  CB  GLU A   4     -11.520  -4.323  43.169  0.00  0.00    +0.041 C 
BRANCH 110 111
ATOM    111  CG  GLU A   4     -11.415  -3.786  44.583  0.00  0.00    +0.116 C 
BRANCH 111 112
ATOM    112  CD  GLU A   4     -12.663  -3.062  45.060  0.00  0.00    +0.365 C 
ATOM    113  OE2 GLU A   4     -12.619  -2.491  46.175  0.00  0.00    -0.246 OA
ATOM    114  OE1 GLU A   4     -13.678  -3.054  44.328  0.00  0.00    -0.246 OA
ENDBRANCH 111 112
ENDBRANCH 110 111
ENDBRANCH  82 110
ENDBRANCH  79  82
ENDBRANCH  77  78
BRANCH  77 115
ATOM    115  CB  VAL A   3      -7.390  -1.116  43.124  0.00  0.00    +0.027 C 
ATOM    116  CG2 VAL A   3      -6.811  -2.113  44.104  0.00  0.00    +0.002 C 
ATOM    117  CG1 VAL A   3      -6.466   0.089  42.964  0.00  0.00    +0.002 C 
ENDBRANCH  77 115
ENDBRANCH  74  77
ENDBRANCH  61  73
ENDBRANCH  60  61
ENDBRANCH   1  60
TORSDOF 51
REMARK  Name = ../refined-set-2016/3p9l/3p9l_pocket.pdb
REMARK  333 active torsions:
REMARK  status: ('A' for Active; 'I' for Inactive)
REMARK    1  A    between atoms: _1  and  _3
REMARK    2  A    between atoms: _3  and  _4
REMARK    3  A    between atoms: _3  and  _6
REMARK    4  A    between atoms: _6  and  _7
REMARK    5  A    between atoms: _10  and  _12
REMARK    6  A    between atoms: _12  and  _13
REMARK    7  A    between atoms: _12  and  _15
REMARK    8  A    between atoms: _15  and  _16
REMARK    9  A    between atoms: _16  and  _17
REMARK   10  A    between atoms: _17  and  _18
REMARK   11  A    between atoms: _27  and  _29
REMARK   12  A    between atoms: _29  and  _30
REMARK   13  A    between atoms: _29  and  _32
REMARK   14  A    between atoms: _32  and  _33
REMARK   15  A    between atoms: _38  and  _39
REMARK   16  A    between atoms: _41  and  _43
REMARK   17  A    between atoms: _43  and  _44
REMARK   18  A    between atoms: _43  and  _46
REMARK   19  A    between atoms: _46  and  _47
REMARK   20  A    between atoms: _53  and  _55
REMARK   21  A    between atoms: _55  and  _56
REMARK   22  A    between atoms: _55  and  _58
REMARK   23  A    between atoms: _61  and  _63
REMARK   24  A    between atoms: _63  and  _64
REMARK   25  A    between atoms: _63  and  _66
REMARK   26  A    between atoms: _66  and  _67
REMARK   27  A    between atoms: _70  and  _72
REMARK   28  A    between atoms: _72  and  _73
REMARK   29  A    between atoms: _72  and  _75
REMARK   30  A    between atoms: _75  and  _76
REMARK   31  A    between atoms: _81  and  _82
REMARK   32  A    between atoms: _84  and  _86
REMARK   33  A    between atoms: _86  and  _87
REMARK   34  A    between atoms: _86  and  _89
REMARK   35  A    between atoms: _89  and  _90
REMARK   36  A    between atoms: _90  and  _91
REMARK   37  A    between atoms: _93  and  _95
REMARK   38  A    between atoms: _95  and  _96
REMARK   39  A    between atoms: _95  and  _98
REMARK   40  A    between atoms: _98  and  _99
REMARK   41  A    between atoms: _99  and  _100
REMARK   42  A    between atoms: _103  and  _105
REMARK   43  A    between atoms: _105  and  _106
REMARK   44  A    between atoms: _105  and  _108
REMARK   45  A    between atoms: _111  and  _113
REMARK   46  A    between atoms: _113  and  _114
REMARK   47  A    between atoms: _116  and  _118
REMARK   48  A    between atoms: _118  and  _119
REMARK   49  A    between atoms: _118  and  _121
REMARK   50  A    between atoms: _124  and  _126
REMARK   51  A    between atoms: _126  and  _127
REMARK   52  A    between atoms: _126  and  _129
REMARK   53  A    between atoms: _129  and  _130
REMARK   54  A    between atoms: _136  and  _138
REMARK   55  A    between atoms: _138  and  _139
REMARK   56  A    between atoms: _138  and  _141
REMARK   57  A    between atoms: _144  and  _146
REMARK   58  A    between atoms: _146  and  _147
REMARK   59  A    between atoms: _146  and  _149
REMARK   60  A    between atoms: _149  and  _150
REMARK   61  A    between atoms: _156  and  _158
REMARK   62  A    between atoms: _158  and  _159
REMARK   63  A    between atoms: _158  and  _161
REMARK   64  A    between atoms: _161  and  _162
REMARK   65  A    between atoms: _167  and  _168
REMARK   66  A    between atoms: _170  and  _172
REMARK   67  A    between atoms: _172  and  _173
REMARK   68  A    between atoms: _172  and  _175
REMARK   69  A    between atoms: _175  and  _176
REMARK   70  A    between atoms: _176  and  _177
REMARK   71  A    between atoms: _179  and  _181
REMARK   72  A    between atoms: _181  and  _182
REMARK   73  A    between atoms: _181  and  _184
REMARK   74  A    between atoms: _184  and  _185
REMARK   75  A    between atoms: _190  and  _191
REMARK   76  A    between atoms: _193  and  _195
REMARK   77  A    between atoms: _195  and  _196
REMARK   78  A    between atoms: _195  and  _198
REMARK   79  A    between atoms: _198  and  _199
REMARK   80  A    between atoms: _199  and  _200
REMARK   81  A    between atoms: _200  and  _201
REMARK   82  A    between atoms: _210  and  _212
REMARK   83  A    between atoms: _212  and  _213
REMARK   84  A    between atoms: _212  and  _215
REMARK   85  A    between atoms: _215  and  _216
REMARK   86  A    between atoms: _216  and  _217
REMARK   87  A    between atoms: _220  and  _222
REMARK   88  A    between atoms: _222  and  _223
REMARK   89  A    between atoms: _222  and  _225
REMARK   90  A    between atoms: _225  and  _226
REMARK   91  A    between atoms: _226  and  _227
REMARK   92  A    between atoms: _232  and  _234
REMARK   93  A    between atoms: _234  and  _235
REMARK   94  A    between atoms: _234  and  _237
REMARK   95  A    between atoms: _237  and  _238
REMARK   96  A    between atoms: _238  and  _239
REMARK   97  A    between atoms: _239  and  _240
REMARK   98  A    between atoms: _240  and  _241
REMARK   99  A    between atoms: _245  and  _247
REMARK  100  A    between atoms: _247  and  _248
REMARK  101  A    between atoms: _251  and  _253
REMARK  102  A    between atoms: _253  and  _254
REMARK  103  A    between atoms: _256  and  _258
REMARK  104  A    between atoms: _258  and  _259
REMARK  105  A    between atoms: _258  and  _261
REMARK  106  A    between atoms: _261  and  _262
REMARK  107  A    between atoms: _267  and  _269
REMARK  108  A    between atoms: _269  and  _270
REMARK  109  A    between atoms: _269  and  _272
REMARK  110  A    between atoms: _272  and  _273
REMARK  111  A    between atoms: _273  and  _274
REMARK  112  A    between atoms: _277  and  _279
REMARK  113  A    between atoms: _279  and  _280
REMARK  114  A    between atoms: _279  and  _282
REMARK  115  A    between atoms: _282  and  _283
REMARK  116  A    between atoms: _283  and  _284
REMARK  117  A    between atoms: _289  and  _291
REMARK  118  A    between atoms: _291  and  _292
REMARK  119  A    between atoms: _291  and  _294
REMARK  120  A    between atoms: _294  and  _295
REMARK  121  A    between atoms: _297  and  _299
REMARK  122  A    between atoms: _299  and  _300
REMARK  123  A    between atoms: _299  and  _302
REMARK  124  A    between atoms: _302  and  _303
REMARK  125  A    between atoms: _309  and  _311
REMARK  126  A    between atoms: _311  and  _312
REMARK  127  A    between atoms: _311  and  _314
REMARK  128  A    between atoms: _314  and  _315
REMARK  129  A    between atoms: _315  and  _316
REMARK  130  A    between atoms: _316  and  _317
REMARK  131  A    between atoms: _326  and  _328
REMARK  132  A    between atoms: _328  and  _329
REMARK  133  A    between atoms: _328  and  _331
REMARK  134  A    between atoms: _334  and  _336
REMARK  135  A    between atoms: _336  and  _337
REMARK  136  A    between atoms: _336  and  _339
REMARK  137  A    between atoms: _339  and  _340
REMARK  138  A    between atoms: _343  and  _345
REMARK  139  A    between atoms: _345  and  _346
REMARK  140  A    between atoms: _345  and  _348
REMARK  141  A    between atoms: _348  and  _349
REMARK  142  A    between atoms: _352  and  _354
REMARK  143  A    between atoms: _354  and  _355
REMARK  144  A    between atoms: _354  and  _357
REMARK  145  A    between atoms: _357  and  _358
REMARK  146  A    between atoms: _358  and  _359
REMARK  147  A    between atoms: _359  and  _360
REMARK  148  A    between atoms: _369  and  _371
REMARK  149  A    between atoms: _371  and  _372
REMARK  150  A    between atoms: _371  and  _374
REMARK  151  A    between atoms: _374  and  _375
REMARK  152  A    between atoms: _378  and  _380
REMARK  153  A    between atoms: _380  and  _381
REMARK  154  A    between atoms: _380  and  _383
REMARK  155  A    between atoms: _383  and  _384
REMARK  156  A    between atoms: _387  and  _389
REMARK  157  A    between atoms: _389  and  _390
REMARK  158  A    between atoms: _389  and  _392
REMARK  159  A    between atoms: _392  and  _393
REMARK  160  A    between atoms: _398  and  _399
REMARK  161  A    between atoms: _401  and  _403
REMARK  162  A    between atoms: _403  and  _404
REMARK  163  A    between atoms: _403  and  _406
REMARK  164  A    between atoms: _406  and  _407
REMARK  165  A    between atoms: _412  and  _413
REMARK  166  A    between atoms: _415  and  _417
REMARK  167  A    between atoms: _417  and  _418
REMARK  168  A    between atoms: _417  and  _420
REMARK  169  A    between atoms: _420  and  _421
REMARK  170  A    between atoms: _424  and  _426
REMARK  171  A    between atoms: _426  and  _427
REMARK  172  A    between atoms: _426  and  _429
REMARK  173  A    between atoms: _429  and  _430
REMARK  174  A    between atoms: _430  and  _431
REMARK  175  A    between atoms: _436  and  _438
REMARK  176  A    between atoms: _438  and  _439
REMARK  177  A    between atoms: _438  and  _441
REMARK  178  A    between atoms: _444  and  _446
REMARK  179  A    between atoms: _446  and  _447
REMARK  180  A    between atoms: _446  and  _449
REMARK  181  A    between atoms: _449  and  _450
REMARK  182  A    between atoms: _453  and  _455
REMARK  183  A    between atoms: _455  and  _456
REMARK  184  A    between atoms: _455  and  _458
REMARK  185  A    between atoms: _458  and  _459
REMARK  186  A    between atoms: _461  and  _463
REMARK  187  A    between atoms: _463  and  _464
REMARK  188  A    between atoms: _466  and  _468
REMARK  189  A    between atoms: _468  and  _469
REMARK  190  A    between atoms: _468  and  _471
REMARK  191  A    between atoms: _471  and  _472
REMARK  192  A    between atoms: _472  and  _774
REMARK  193  A    between atoms: _473  and  _475
REMARK  194  A    between atoms: _475  and  _476
REMARK  195  A    between atoms: _475  and  _478
REMARK  196  A    between atoms: _478  and  _479
REMARK  197  A    between atoms: _484  and  _485
REMARK  198  A    between atoms: _487  and  _489
REMARK  199  A    between atoms: _489  and  _490
REMARK  200  A    between atoms: _489  and  _492
REMARK  201  A    between atoms: _492  and  _493
REMARK  202  A    between atoms: _493  and  _494
REMARK  203  A    between atoms: _499  and  _501
REMARK  204  A    between atoms: _501  and  _502
REMARK  205  A    between atoms: _501  and  _504
REMARK  206  A    between atoms: _504  and  _505
REMARK  207  A    between atoms: _505  and  _506
REMARK  208  A    between atoms: _511  and  _513
REMARK  209  A    between atoms: _513  and  _514
REMARK  210  A    between atoms: _513  and  _516
REMARK  211  A    between atoms: _516  and  _517
REMARK  212  A    between atoms: _522  and  _523
REMARK  213  A    between atoms: _525  and  _527
REMARK  214  A    between atoms: _527  and  _528
REMARK  215  A    between atoms: _531  and  _533
REMARK  216  A    between atoms: _533  and  _534
REMARK  217  A    between atoms: _533  and  _536
REMARK  218  A    between atoms: _536  and  _537
REMARK  219  A    between atoms: _542  and  _543
REMARK  220  A    between atoms: _545  and  _547
REMARK  221  A    between atoms: _547  and  _548
REMARK  222  A    between atoms: _547  and  _550
REMARK  223  A    between atoms: _550  and  _551
REMARK  224  A    between atoms: _556  and  _557
REMARK  225  A    between atoms: _559  and  _561
REMARK  226  A    between atoms: _561  and  _562
REMARK  227  A    between atoms: _561  and  _564
REMARK  228  A    between atoms: _564  and  _565
REMARK  229  A    between atoms: _568  and  _570
REMARK  230  A    between atoms: _570  and  _571
REMARK  231  A    between atoms: _574  and  _576
REMARK  232  A    between atoms: _576  and  _577
REMARK  233  A    between atoms: _580  and  _582
REMARK  234  A    between atoms: _582  and  _583
REMARK  235  A    between atoms: _582  and  _585
REMARK  236  A    between atoms: _585  and  _586
REMARK  237  A    between atoms: _589  and  _591
REMARK  238  A    between atoms: _591  and  _592
REMARK  239  A    between atoms: _591  and  _594
REMARK  240  A    between atoms: _594  and  _595
REMARK  241  A    between atoms: _598  and  _600
REMARK  242  A    between atoms: _600  and  _601
REMARK  243  A    between atoms: _600  and  _603
REMARK  244  A    between atoms: _603  and  _604
REMARK  245  A    between atoms: _607  and  _609
REMARK  246  A    between atoms: _609  and  _610
REMARK  247  A    between atoms: _609  and  _612
REMARK  248  A    between atoms: _612  and  _613
REMARK  249  A    between atoms: _613  and  _614
REMARK  250  A    between atoms: _614  and  _615
REMARK  251  A    between atoms: _615  and  _616
REMARK  252  A    between atoms: _620  and  _622
REMARK  253  A    between atoms: _622  and  _623
REMARK  254  A    between atoms: _622  and  _625
REMARK  255  A    between atoms: _625  and  _626
REMARK  256  A    between atoms: _631  and  _633
REMARK  257  A    between atoms: _633  and  _634
REMARK  258  A    between atoms: _633  and  _636
REMARK  259  A    between atoms: _636  and  _637
REMARK  260  A    between atoms: _637  and  _638
REMARK  261  A    between atoms: _638  and  _639
REMARK  262  A    between atoms: _639  and  _640
REMARK  263  A    between atoms: _644  and  _646
REMARK  264  A    between atoms: _646  and  _647
REMARK  265  A    between atoms: _646  and  _649
REMARK  266  A    between atoms: _649  and  _650
REMARK  267  A    between atoms: _660  and  _662
REMARK  268  A    between atoms: _662  and  _663
REMARK  269  A    between atoms: _666  and  _668
REMARK  270  A    between atoms: _668  and  _669
REMARK  271  A    between atoms: _671  and  _673
REMARK  272  A    between atoms: _673  and  _674
REMARK  273  A    between atoms: _673  and  _676
REMARK  274  A    between atoms: _676  and  _677
REMARK  275  A    between atoms: _677  and  _678
REMARK  276  A    between atoms: _681  and  _683
REMARK  277  A    between atoms: _683  and  _684
REMARK  278  A    between atoms: _687  and  _689
REMARK  279  A    between atoms: _689  and  _690
REMARK  280  A    between atoms: _689  and  _692
REMARK  281  A    between atoms: _692  and  _693
REMARK  282  A    between atoms: _693  and  _694
REMARK  283  A    between atoms: _694  and  _695
REMARK  284  A    between atoms: _704  and  _706
REMARK  285  A    between atoms: _706  and  _707
REMARK  286  A    between atoms: _706  and  _709
REMARK  287  A    between atoms: _709  and  _710
REMARK  288  A    between atoms: _713  and  _715
REMARK  289  A    between atoms: _715  and  _716
REMARK  290  A    between atoms: _715  and  _718
REMARK  291  A    between atoms: _718  and  _719
REMARK  292  A    between atoms: _719  and  _720
REMARK  293  A    between atoms: _720  and  _721
REMARK  294  A    between atoms: _730  and  _732
REMARK  295  A    between atoms: _732  and  _733
REMARK  296  A    between atoms: _736  and  _738
REMARK  297  A    between atoms: _738  and  _739
REMARK  298  A    between atoms: _738  and  _741
REMARK  299  A    between atoms: _741  and  _742
REMARK  300  A    between atoms: _747  and  _748
REMARK  301  A    between atoms: _750  and  _752
REMARK  302  A    between atoms: _752  and  _753
REMARK  303  A    between atoms: _752  and  _755
REMARK  304  A    between atoms: _755  and  _756
REMARK  305  A    between atoms: _759  and  _761
REMARK  306  A    between atoms: _761  and  _762
REMARK  307  A    between atoms: _761  and  _764
REMARK  308  A    between atoms: _764  and  _765
REMARK  309  A    between atoms: _768  and  _770
REMARK  310  A    between atoms: _770  and  _771
REMARK  311  A    between atoms: _770  and  _773
REMARK  312  A    between atoms: _773  and  _774
REMARK  313  A    between atoms: _775  and  _777
REMARK  314  A    between atoms: _777  and  _778
REMARK  315  A    between atoms: _777  and  _780
REMARK  316  A    between atoms: _783  and  _785
REMARK  317  A    between atoms: _785  and  _786
REMARK  318  A    between atoms: _785  and  _788
REMARK  319  A    between atoms: _788  and  _789
REMARK  320  A    between atoms: _789  and  _790
REMARK  321  A    between atoms: _793  and  _795
REMARK  322  A    between atoms: _795  and  _796
REMARK  323  A    between atoms: _795  and  _798
REMARK  324  A    between atoms: _798  and  _799
REMARK  325  A    between atoms: _809  and  _811
REMARK  326  A    between atoms: _811  and  _812
REMARK  327  A    between atoms: _811  and  _814
REMARK  328  A    between atoms: _814  and  _815
REMARK  329  A    between atoms: _818  and  _820
REMARK  330  A    between atoms: _820  and  _821
REMARK  331  A    between atoms: _820  and  _823
REMARK  332  A    between atoms: _823  and  _824
REMARK  333  A    between atoms: _829  and  _830
REMARK                            x       y       z     vdW  Elec       q    Type
REMARK                         _______ _______ _______ _____ _____    ______ ____
ROOT
ATOM      1  CA  GLN A   3      -6.536  12.317  30.685  0.00  0.00    +0.149 C 
ENDROOT
BRANCH   1   4
ATOM      2  C   GLN A   2      -7.394  11.353  32.741  0.00  0.00    +0.241 C 
ATOM      3  O   GLN A   2      -7.585  12.454  33.236  0.00  0.00    -0.273 OA
ATOM      4  N   GLN A   3      -6.928  11.184  31.509  0.00  0.00    -0.297 N 
ATOM      5  H   GLN A   3      -6.841  10.221  31.125  0.00  0.00    +0.150 HD
BRANCH   2   6
ATOM      6  CA  GLN A   2      -7.654  10.098  33.544  0.00  0.00    +0.149 C 
BRANCH   6   9
ATOM      7  C   TYR A   1      -6.166   8.739  34.919  0.00  0.00    +0.239 C 
ATOM      8  O   TYR A   1      -6.849   7.720  34.793  0.00  0.00    -0.274 OA
ATOM      9  N   GLN A   2      -6.459   9.896  34.338  0.00  0.00    -0.297 N 
ATOM     10  H   GLN A   2      -5.802  10.693  34.458  0.00  0.00    +0.150 HD
BRANCH   7  11
ATOM     11  CA  TYR A   1      -4.920   8.759  35.786  0.00  0.00    +0.149 C 
BRANCH  11  12
ATOM     12  N   TYR A   1      -4.896   7.704  36.780  0.00  0.00    -0.238 NA
ATOM     13  H   TYR A   1      -5.284   6.763  36.566  0.00  0.00    +0.142 HD
ENDBRANCH  11  12
BRANCH  11  14
ATOM     14  CB  TYR A   1      -3.644   8.733  34.932  0.00  0.00    +0.053 C 
BRANCH  14  15
ATOM     15  CG  TYR A   1      -3.370   7.397  34.302  0.00  0.00    -0.020 A 
ATOM     16  CD2 TYR A   1      -2.643   6.416  34.976  0.00  0.00    -0.001 A 
ATOM     17  CE2 TYR A   1      -2.399   5.174  34.389  0.00  0.00    +0.036 A 
ATOM     18  CZ  TYR A   1      -2.885   4.914  33.106  0.00  0.00    +0.134 A 
ATOM     19  CE1 TYR A   1      -3.606   5.875  32.434  0.00  0.00    +0.036 A 
ATOM     20  CD1 TYR A   1      -3.845   7.107  33.032  0.00  0.00    -0.001 A 
BRANCH  18  21
ATOM     21  OH  TYR A   1      -2.679   3.699  32.479  0.00  0.00    -0.506 OA
ATOM     22  HH  TYR A   1      -1.707   3.538  32.386  0.00  0.00    +0.292 HD
ENDBRANCH  18  21
ENDBRANCH  14  15
ENDBRANCH  11  14
ENDBRANCH   7  11
ENDBRANCH   6   9
BRANCH   6  23
ATOM     23  CB  GLN A   2      -8.876  10.289  34.449  0.00  0.00    +0.039 C 
BRANCH  23  24
ATOM     24  CG  GLN A   2     -10.178  10.671  33.714  0.00  0.00    +0.087 C 
BRANCH  24  25
ATOM     25  CD  GLN A   2     -11.000   9.469  33.236  0.00  0.00    +0.219 C 
ATOM     26  OE1 GLN A   2     -10.481   8.363  33.081  0.00  0.00    -0.275 OA
ATOM     27  NE2 GLN A   2     -12.297   9.692  32.997  0.00  0.00    -0.329 N 
ATOM     28 HE21 GLN A   2     -12.696  10.641  33.140  0.00  0.00    +0.145 HD
ATOM     29 HE22 GLN A   2     -12.906   8.916  32.668  0.00  0.00    +0.145 HD
ENDBRANCH  24  25
ENDBRANCH  23  24
ENDBRANCH   6  23
ENDBRANCH   2   6
ENDBRANCH   1   4
BRANCH   1  30
ATOM     30  C   GLN A   3      -7.163  12.233  29.304  0.00  0.00    +0.241 C 
ATOM     31  N   TYR A   4      -7.548  13.390  28.781  0.00  0.00    -0.297 N 
ATOM     32  H   TYR A   4      -7.380  14.263  29.321  0.00  0.00    +0.150 HD
ATOM     33  O   GLN A   3      -7.266  11.147  28.728  0.00  0.00    -0.273 OA
BRANCH  31  34
ATOM     34  CA  TYR A   4      -8.194  13.486  27.486  0.00  0.00    +0.153 C 
BRANCH  34  35
ATOM     35  C   TYR A   4      -7.356  14.323  26.535  0.00  0.00    +0.241 C 
ATOM     36  O   TYR A   4      -6.636  15.234  26.964  0.00  0.00    -0.273 OA
ATOM     37  N   ALA A   5      -7.498  14.036  25.241  0.00  0.00    -0.297 N 
ATOM     38  H   ALA A   5      -8.055  13.197  24.980  0.00  0.00    +0.150 HD
BRANCH  37  39
ATOM     39  CA  ALA A   5      -6.913  14.837  24.175  0.00  0.00    +0.149 C 
ATOM     40  CB  ALA A   5      -5.677  14.163  23.619  0.00  0.00    +0.031 C 
BRANCH  39  41
ATOM     41  C   ALA A   5      -7.950  15.009  23.065  0.00  0.00    +0.241 C 
ATOM     42  O   ALA A   5      -8.701  14.092  22.755  0.00  0.00    -0.273 OA
ATOM     43  N   TYR A   6      -7.987  16.188  22.465  0.00  0.00    -0.298 N 
ATOM     44  H   TYR A   6      -7.374  16.957  22.804  0.00  0.00    +0.150 HD
BRANCH  43  45
ATOM     45  CA  TYR A   6      -8.878  16.422  21.333  0.00  0.00    +0.141 C 
BRANCH  45  46
ATOM     46  C   TYR A   6      -8.010  16.791  20.153  0.00  0.00    +0.227 C 
ATOM     47  O   TYR A   6      -7.185  17.690  20.266  0.00  0.00    -0.286 OA
ENDBRANCH  45  46
BRANCH  45  48
ATOM     48  CB  TYR A   6      -9.855  17.554  21.647  0.00  0.00    +0.054 C 
BRANCH  48  49
ATOM     49  CG  TYR A   6     -10.848  17.861  20.531  0.00  0.00    -0.020 A 
ATOM     50  CD2 TYR A   6     -11.700  16.883  20.043  0.00  0.00    -0.001 A 
ATOM     51  CE2 TYR A   6     -12.611  17.162  19.032  0.00  0.00    +0.036 A 
ATOM     52  CZ  TYR A   6     -12.673  18.439  18.502  0.00  0.00    +0.134 A 
ATOM     53  CE1 TYR A   6     -11.833  19.428  18.974  0.00  0.00    +0.036 A 
ATOM     54  CD1 TYR A   6     -10.930  19.136  19.980  0.00  0.00    -0.001 A 
BRANCH  52  55
ATOM     55  OH  TYR A   6     -13.577  18.732  17.496  0.00  0.00    -0.506 OA
ATOM     56  HH  TYR A   6     -13.087  19.039  16.692  0.00  0.00    +0.292 HD
ENDBRANCH  52  55
ENDBRANCH  48  49
ENDBRANCH  45  48
ENDBRANCH  43  45
ENDBRANCH  39  41
ENDBRANCH  37  39
ENDBRANCH  34  35
BRANCH  34  57
ATOM     57  CB  TYR A   4      -9.526  14.206  27.638  0.00  0.00    +0.055 C 
BRANCH  57  58
ATOM     58  CG  TYR A   4     -10.676  13.409  28.183  0.00  0.00    -0.020 A 
ATOM     59  CD2 TYR A   4     -10.658  12.891  29.471  0.00  0.00    -0.001 A 
ATOM     60  CE2 TYR A   4     -11.750  12.182  29.971  0.00  0.00    +0.036 A 
ATOM     61  CZ  TYR A   4     -12.869  12.003  29.187  0.00  0.00    +0.134 A 
ATOM     62  CE1 TYR A   4     -12.916  12.518  27.910  0.00  0.00    +0.036 A 
ATOM     63  CD1 TYR A   4     -11.826  13.223  27.416  0.00  0.00    -0.001 A 
BRANCH  61  64
ATOM     64  OH  TYR A   4     -13.961  11.305  29.666  0.00  0.00    -0.506 OA
ATOM     65  HH  TYR A   4     -14.756  11.896  29.664  0.00  0.00    +0.292 HD
ENDBRANCH  61  64
ENDBRANCH  57  58
ENDBRANCH  34  57
ENDBRANCH  31  34
ENDBRANCH   1  30
BRANCH   1  66
ATOM     66  CB  GLN A   3      -5.013  12.379  30.562  0.00  0.00    +0.039 C 
BRANCH  66  67
ATOM     67  CG  GLN A   3      -4.293  12.403  31.902  0.00  0.00    +0.087 C 
BRANCH  67  68
ATOM     68  CD  GLN A   3      -2.797  12.223  31.765  0.00  0.00    +0.219 C 
ATOM     69  NE2 GLN A   3      -2.128  11.957  32.883  0.00  0.00    -0.329 N 
ATOM     70 HE21 GLN A   3      -2.635  11.888  33.789  0.00  0.00    +0.145 HD
ATOM     71 HE22 GLN A   3      -1.098  11.817  32.852  0.00  0.00    +0.145 HD
ATOM     72  OE1 GLN A   3      -2.247  12.315  30.668  0.00  0.00    -0.275 OA
ENDBRANCH  67  68
ENDBRANCH  66  67
ENDBRANCH   1  66
TORSDOF 27
REMARK  Name = ../refined-set-2016/3p9l/3p9l_pocket.pdb
REMARK  333 active torsions:
REMARK  status: ('A' for Active; 'I' for Inactive)
REMARK    1  A    between atoms: _1  and  _3
REMARK    2  A    between atoms: _3  and  _4
REMARK    3  A    between atoms: _3  and  _6
REMARK    4  A    between atoms: _6  and  _7
REMARK    5  A    between atoms: _10  and  _12
REMARK    6  A    between atoms: _12  and  _13
REMARK    7  A    between atoms: _12  and  _15
REMARK    8  A    between atoms: _15  and  _16
REMARK    9  A    between atoms: _16  and  _17
REMARK   10  A    between atoms: _17  and  _18
REMARK   11  A    between atoms: _27  and  _29
REMARK   12  A    between atoms: _29  and  _30
REMARK   13  A    between atoms: _29  and  _32
REMARK   14  A    between atoms: _32  and  _33
REMARK   15  A    between atoms: _38  and  _39
REMARK   16  A    between atoms: _41  and  _43
REMARK   17  A    between atoms: _43  and  _44
REMARK   18  A    between atoms: _43  and  _46
REMARK   19  A    between atoms: _46  and  _47
REMARK   20  A    between atoms: _53  and  _55
REMARK   21  A    between atoms: _55  and  _56
REMARK   22  A    between atoms: _55  and  _58
REMARK   23  A    between atoms: _61  and  _63
REMARK   24  A    between atoms: _63  and  _64
REMARK   25  A    between atoms: _63  and  _66
REMARK   26  A    between atoms: _66  and  _67
REMARK   27  A    between atoms: _70  and  _72
REMARK   28  A    between atoms: _72  and  _73
REMARK   29  A    between atoms: _72  and  _75
REMARK   30  A    between atoms: _75  and  _76
REMARK   31  A    between atoms: _81  and  _82
REMARK   32  A    between atoms: _84  and  _86
REMARK   33  A    between atoms: _86  and  _87
REMARK   34  A    between atoms: _86  and  _89
REMARK   35  A    between atoms: _89  and  _90
REMARK   36  A    between atoms: _90  and  _91
REMARK   37  A    between atoms: _93  and  _95
REMARK   38  A    between atoms: _95  and  _96
REMARK   39  A    between atoms: _95  and  _98
REMARK   40  A    between atoms: _98  and  _99
REMARK   41  A    between atoms: _99  and  _100
REMARK   42  A    between atoms: _103  and  _105
REMARK   43  A    between atoms: _105  and  _106
REMARK   44  A    between atoms: _105  and  _108
REMARK   45  A    between atoms: _111  and  _113
REMARK   46  A    between atoms: _113  and  _114
REMARK   47  A    between atoms: _116  and  _118
REMARK   48  A    between atoms: _118  and  _119
REMARK   49  A    between atoms: _118  and  _121
REMARK   50  A    between atoms: _124  and  _126
REMARK   51  A    between atoms: _126  and  _127
REMARK   52  A    between atoms: _126  and  _129
REMARK   53  A    between atoms: _129  and  _130
REMARK   54  A    between atoms: _136  and  _138
REMARK   55  A    between atoms: _138  and  _139
REMARK   56  A    between atoms: _138  and  _141
REMARK   57  A    between atoms: _144  and  _146
REMARK   58  A    between atoms: _146  and  _147
REMARK   59  A    between atoms: _146  and  _149
REMARK   60  A    between atoms: _149  and  _150
REMARK   61  A    between atoms: _156  and  _158
REMARK   62  A    between atoms: _158  and  _159
REMARK   63  A    between atoms: _158  and  _161
REMARK   64  A    between atoms: _161  and  _162
REMARK   65  A    between atoms: _167  and  _168
REMARK   66  A    between atoms: _170  and  _172
REMARK   67  A    between atoms: _172  and  _173
REMARK   68  A    between atoms: _172  and  _175
REMARK   69  A    between atoms: _175  and  _176
REMARK   70  A    between atoms: _176  and  _177
REMARK   71  A    between atoms: _179  and  _181
REMARK   72  A    between atoms: _181  and  _182
REMARK   73  A    between atoms: _181  and  _184
REMARK   74  A    between atoms: _184  and  _185
REMARK   75  A    between atoms: _190  and  _191
REMARK   76  A    between atoms: _193  and  _195
REMARK   77  A    between atoms: _195  and  _196
REMARK   78  A    between atoms: _195  and  _198
REMARK   79  A    between atoms: _198  and  _199
REMARK   80  A    between atoms: _199  and  _200
REMARK   81  A    between atoms: _200  and  _201
REMARK   82  A    between atoms: _210  and  _212
REMARK   83  A    between atoms: _212  and  _213
REMARK   84  A    between atoms: _212  and  _215
REMARK   85  A    between atoms: _215  and  _216
REMARK   86  A    between atoms: _216  and  _217
REMARK   87  A    between atoms: _220  and  _222
REMARK   88  A    between atoms: _222  and  _223
REMARK   89  A    between atoms: _222  and  _225
REMARK   90  A    between atoms: _225  and  _226
REMARK   91  A    between atoms: _226  and  _227
REMARK   92  A    between atoms: _232  and  _234
REMARK   93  A    between atoms: _234  and  _235
REMARK   94  A    between atoms: _234  and  _237
REMARK   95  A    between atoms: _237  and  _238
REMARK   96  A    between atoms: _238  and  _239
REMARK   97  A    between atoms: _239  and  _240
REMARK   98  A    between atoms: _240  and  _241
REMARK   99  A    between atoms: _245  and  _247
REMARK  100  A    between atoms: _247  and  _248
REMARK  101  A    between atoms: _251  and  _253
REMARK  102  A    between atoms: _253  and  _254
REMARK  103  A    between atoms: _256  and  _258
REMARK  104  A    between atoms: _258  and  _259
REMARK  105  A    between atoms: _258  and  _261
REMARK  106  A    between atoms: _261  and  _262
REMARK  107  A    between atoms: _267  and  _269
REMARK  108  A    between atoms: _269  and  _270
REMARK  109  A    between atoms: _269  and  _272
REMARK  110  A    between atoms: _272  and  _273
REMARK  111  A    between atoms: _273  and  _274
REMARK  112  A    between atoms: _277  and  _279
REMARK  113  A    between atoms: _279  and  _280
REMARK  114  A    between atoms: _279  and  _282
REMARK  115  A    between atoms: _282  and  _283
REMARK  116  A    between atoms: _283  and  _284
REMARK  117  A    between atoms: _289  and  _291
REMARK  118  A    between atoms: _291  and  _292
REMARK  119  A    between atoms: _291  and  _294
REMARK  120  A    between atoms: _294  and  _295
REMARK  121  A    between atoms: _297  and  _299
REMARK  122  A    between atoms: _299  and  _300
REMARK  123  A    between atoms: _299  and  _302
REMARK  124  A    between atoms: _302  and  _303
REMARK  125  A    between atoms: _309  and  _311
REMARK  126  A    between atoms: _311  and  _312
REMARK  127  A    between atoms: _311  and  _314
REMARK  128  A    between atoms: _314  and  _315
REMARK  129  A    between atoms: _315  and  _316
REMARK  130  A    between atoms: _316  and  _317
REMARK  131  A    between atoms: _326  and  _328
REMARK  132  A    between atoms: _328  and  _329
REMARK  133  A    between atoms: _328  and  _331
REMARK  134  A    between atoms: _334  and  _336
REMARK  135  A    between atoms: _336  and  _337
REMARK  136  A    between atoms: _336  and  _339
REMARK  137  A    between atoms: _339  and  _340
REMARK  138  A    between atoms: _343  and  _345
REMARK  139  A    between atoms: _345  and  _346
REMARK  140  A    between atoms: _345  and  _348
REMARK  141  A    between atoms: _348  and  _349
REMARK  142  A    between atoms: _352  and  _354
REMARK  143  A    between atoms: _354  and  _355
REMARK  144  A    between atoms: _354  and  _357
REMARK  145  A    between atoms: _357  and  _358
REMARK  146  A    between atoms: _358  and  _359
REMARK  147  A    between atoms: _359  and  _360
REMARK  148  A    between atoms: _369  and  _371
REMARK  149  A    between atoms: _371  and  _372
REMARK  150  A    between atoms: _371  and  _374
REMARK  151  A    between atoms: _374  and  _375
REMARK  152  A    between atoms: _378  and  _380
REMARK  153  A    between atoms: _380  and  _381
REMARK  154  A    between atoms: _380  and  _383
REMARK  155  A    between atoms: _383  and  _384
REMARK  156  A    between atoms: _387  and  _389
REMARK  157  A    between atoms: _389  and  _390
REMARK  158  A    between atoms: _389  and  _392
REMARK  159  A    between atoms: _392  and  _393
REMARK  160  A    between atoms: _398  and  _399
REMARK  161  A    between atoms: _401  and  _403
REMARK  162  A    between atoms: _403  and  _404
REMARK  163  A    between atoms: _403  and  _406
REMARK  164  A    between atoms: _406  and  _407
REMARK  165  A    between atoms: _412  and  _413
REMARK  166  A    between atoms: _415  and  _417
REMARK  167  A    between atoms: _417  and  _418
REMARK  168  A    between atoms: _417  and  _420
REMARK  169  A    between atoms: _420  and  _421
REMARK  170  A    between atoms: _424  and  _426
REMARK  171  A    between atoms: _426  and  _427
REMARK  172  A    between atoms: _426  and  _429
REMARK  173  A    between atoms: _429  and  _430
REMARK  174  A    between atoms: _430  and  _431
REMARK  175  A    between atoms: _436  and  _438
REMARK  176  A    between atoms: _438  and  _439
REMARK  177  A    between atoms: _438  and  _441
REMARK  178  A    between atoms: _444  and  _446
REMARK  179  A    between atoms: _446  and  _447
REMARK  180  A    between atoms: _446  and  _449
REMARK  181  A    between atoms: _449  and  _450
REMARK  182  A    between atoms: _453  and  _455
REMARK  183  A    between atoms: _455  and  _456
REMARK  184  A    between atoms: _455  and  _458
REMARK  185  A    between atoms: _458  and  _459
REMARK  186  A    between atoms: _461  and  _463
REMARK  187  A    between atoms: _463  and  _464
REMARK  188  A    between atoms: _466  and  _468
REMARK  189  A    between atoms: _468  and  _469
REMARK  190  A    between atoms: _468  and  _471
REMARK  191  A    between atoms: _471  and  _472
REMARK  192  A    between atoms: _472  and  _774
REMARK  193  A    between atoms: _473  and  _475
REMARK  194  A    between atoms: _475  and  _476
REMARK  195  A    between atoms: _475  and  _478
REMARK  196  A    between atoms: _478  and  _479
REMARK  197  A    between atoms: _484  and  _485
REMARK  198  A    between atoms: _487  and  _489
REMARK  199  A    between atoms: _489  and  _490
REMARK  200  A    between atoms: _489  and  _492
REMARK  201  A    between atoms: _492  and  _493
REMARK  202  A    between atoms: _493  and  _494
REMARK  203  A    between atoms: _499  and  _501
REMARK  204  A    between atoms: _501  and  _502
REMARK  205  A    between atoms: _501  and  _504
REMARK  206  A    between atoms: _504  and  _505
REMARK  207  A    between atoms: _505  and  _506
REMARK  208  A    between atoms: _511  and  _513
REMARK  209  A    between atoms: _513  and  _514
REMARK  210  A    between atoms: _513  and  _516
REMARK  211  A    between atoms: _516  and  _517
REMARK  212  A    between atoms: _522  and  _523
REMARK  213  A    between atoms: _525  and  _527
REMARK  214  A    between atoms: _527  and  _528
REMARK  215  A    between atoms: _531  and  _533
REMARK  216  A    between atoms: _533  and  _534
REMARK  217  A    between atoms: _533  and  _536
REMARK  218  A    between atoms: _536  and  _537
REMARK  219  A    between atoms: _542  and  _543
REMARK  220  A    between atoms: _545  and  _547
REMARK  221  A    between atoms: _547  and  _548
REMARK  222  A    between atoms: _547  and  _550
REMARK  223  A    between atoms: _550  and  _551
REMARK  224  A    between atoms: _556  and  _557
REMARK  225  A    between atoms: _559  and  _561
REMARK  226  A    between atoms: _561  and  _562
REMARK  227  A    between atoms: _561  and  _564
REMARK  228  A    between atoms: _564  and  _565
REMARK  229  A    between atoms: _568  and  _570
REMARK  230  A    between atoms: _570  and  _571
REMARK  231  A    between atoms: _574  and  _576
REMARK  232  A    between atoms: _576  and  _577
REMARK  233  A    between atoms: _580  and  _582
REMARK  234  A    between atoms: _582  and  _583
REMARK  235  A    between atoms: _582  and  _585
REMARK  236  A    between atoms: _585  and  _586
REMARK  237  A    between atoms: _589  and  _591
REMARK  238  A    between atoms: _591  and  _592
REMARK  239  A    between atoms: _591  and  _594
REMARK  240  A    between atoms: _594  and  _595
REMARK  241  A    between atoms: _598  and  _600
REMARK  242  A    between atoms: _600  and  _601
REMARK  243  A    between atoms: _600  and  _603
REMARK  244  A    between atoms: _603  and  _604
REMARK  245  A    between atoms: _607  and  _609
REMARK  246  A    between atoms: _609  and  _610
REMARK  247  A    between atoms: _609  and  _612
REMARK  248  A    between atoms: _612  and  _613
REMARK  249  A    between atoms: _613  and  _614
REMARK  250  A    between atoms: _614  and  _615
REMARK  251  A    between atoms: _615  and  _616
REMARK  252  A    between atoms: _620  and  _622
REMARK  253  A    between atoms: _622  and  _623
REMARK  254  A    between atoms: _622  and  _625
REMARK  255  A    between atoms: _625  and  _626
REMARK  256  A    between atoms: _631  and  _633
REMARK  257  A    between atoms: _633  and  _634
REMARK  258  A    between atoms: _633  and  _636
REMARK  259  A    between atoms: _636  and  _637
REMARK  260  A    between atoms: _637  and  _638
REMARK  261  A    between atoms: _638  and  _639
REMARK  262  A    between atoms: _639  and  _640
REMARK  263  A    between atoms: _644  and  _646
REMARK  264  A    between atoms: _646  and  _647
REMARK  265  A    between atoms: _646  and  _649
REMARK  266  A    between atoms: _649  and  _650
REMARK  267  A    between atoms: _660  and  _662
REMARK  268  A    between atoms: _662  and  _663
REMARK  269  A    between atoms: _666  and  _668
REMARK  270  A    between atoms: _668  and  _669
REMARK  271  A    between atoms: _671  and  _673
REMARK  272  A    between atoms: _673  and  _674
REMARK  273  A    between atoms: _673  and  _676
REMARK  274  A    between atoms: _676  and  _677
REMARK  275  A    between atoms: _677  and  _678
REMARK  276  A    between atoms: _681  and  _683
REMARK  277  A    between atoms: _683  and  _684
REMARK  278  A    between atoms: _687  and  _689
REMARK  279  A    between atoms: _689  and  _690
REMARK  280  A    between atoms: _689  and  _692
REMARK  281  A    between atoms: _692  and  _693
REMARK  282  A    between atoms: _693  and  _694
REMARK  283  A    between atoms: _694  and  _695
REMARK  284  A    between atoms: _704  and  _706
REMARK  285  A    between atoms: _706  and  _707
REMARK  286  A    between atoms: _706  and  _709
REMARK  287  A    between atoms: _709  and  _710
REMARK  288  A    between atoms: _713  and  _715
REMARK  289  A    between atoms: _715  and  _716
REMARK  290  A    between atoms: _715  and  _718
REMARK  291  A    between atoms: _718  and  _719
REMARK  292  A    between atoms: _719  and  _720
REMARK  293  A    between atoms: _720  and  _721
REMARK  294  A    between atoms: _730  and  _732
REMARK  295  A    between atoms: _732  and  _733
REMARK  296  A    between atoms: _736  and  _738
REMARK  297  A    between atoms: _738  and  _739
REMARK  298  A    between atoms: _738  and  _741
REMARK  299  A    between atoms: _741  and  _742
REMARK  300  A    between atoms: _747  and  _748
REMARK  301  A    between atoms: _750  and  _752
REMARK  302  A    between atoms: _752  and  _753
REMARK  303  A    between atoms: _752  and  _755
REMARK  304  A    between atoms: _755  and  _756
REMARK  305  A    between atoms: _759  and  _761
REMARK  306  A    between atoms: _761  and  _762
REMARK  307  A    between atoms: _761  and  _764
REMARK  308  A    between atoms: _764  and  _765
REMARK  309  A    between atoms: _768  and  _770
REMARK  310  A    between atoms: _770  and  _771
REMARK  311  A    between atoms: _770  and  _773
REMARK  312  A    between atoms: _773  and  _774
REMARK  313  A    between atoms: _775  and  _777
REMARK  314  A    between atoms: _777  and  _778
REMARK  315  A    between atoms: _777  and  _780
REMARK  316  A    between atoms: _783  and  _785
REMARK  317  A    between atoms: _785  and  _786
REMARK  318  A    between atoms: _785  and  _788
REMARK  319  A    between atoms: _788  and  _789
REMARK  320  A    between atoms: _789  and  _790
REMARK  321  A    between atoms: _793  and  _795
REMARK  322  A    between atoms: _795  and  _796
REMARK  323  A    between atoms: _795  and  _798
REMARK  324  A    between atoms: _798  and  _799
REMARK  325  A    between atoms: _809  and  _811
REMARK  326  A    between atoms: _811  and  _812
REMARK  327  A    between atoms: _811  and  _814
REMARK  328  A    between atoms: _814  and  _815
REMARK  329  A    between atoms: _818  and  _820
REMARK  330  A    between atoms: _820  and  _821
REMARK  331  A    between atoms: _820  and  _823
REMARK  332  A    between atoms: _823  and  _824
REMARK  333  A    between atoms: _829  and  _830
REMARK                            x       y       z     vdW  Elec       q    Type
REMARK                         _______ _______ _______ _____ _____    ______ ____
ROOT
ATOM      1  CA  TYR A   1      -7.602  18.763  26.578  0.00  0.00    +0.149 C 
ENDROOT
BRANCH   1   2
ATOM      2  C   TYR A   1      -7.816  18.994  28.078  0.00  0.00    +0.239 C 
ATOM      3  N   ILE A   2      -7.965  17.907  28.822  0.00  0.00    -0.298 N 
ATOM      4  H   ILE A   2      -7.986  16.971  28.369  0.00  0.00    +0.150 HD
ATOM      5  O   TYR A   1      -7.824  20.137  28.568  0.00  0.00    -0.274 OA
BRANCH   3   6
ATOM      6  CA  ILE A   2      -8.099  18.013  30.264  0.00  0.00    +0.137 C 
BRANCH   6   7
ATOM      7  C   ILE A   2      -7.537  16.753  30.925  0.00  0.00    +0.227 C 
ATOM      8  O   ILE A   2      -7.511  15.686  30.308  0.00  0.00    -0.286 OA
ENDBRANCH   6   7
BRANCH   6   9
ATOM      9  CB  ILE A   2      -9.570  18.289  30.679  0.00  0.00    +0.026 C 
ATOM     10  CG2 ILE A   2     -10.431  17.051  30.498  0.00  0.00    +0.002 C 
BRANCH   9  11
ATOM     11  CG1 ILE A   2      -9.633  18.803  32.123  0.00  0.00    +0.002 C 
ATOM     12  CD1 ILE A   2     -11.042  19.137  32.597  0.00  0.00    +0.000 C 
ENDBRANCH   9  11
ENDBRANCH   6   9
ENDBRANCH   3   6
ENDBRANCH   1   2
BRANCH   1  13
ATOM     13  N   TYR A   1      -6.343  18.057  26.360  0.00  0.00    -0.238 NA
ATOM     14  H   TYR A   1      -6.230  17.097  26.744  0.00  0.00    +0.142 HD
ENDBRANCH   1  13
BRANCH   1  15
ATOM     15  CB  TYR A   1      -8.775  17.981  25.957  0.00  0.00    +0.053 C 
BRANCH  15  16
ATOM     16  CG  TYR A   1     -10.112  18.669  26.122  0.00  0.00    -0.020 A 
ATOM     17  CD2 TYR A   1     -11.001  18.289  27.131  0.00  0.00    -0.001 A 
ATOM     18  CE2 TYR A   1     -12.227  18.929  27.286  0.00  0.00    +0.036 A 
ATOM     19  CZ  TYR A   1     -12.559  19.974  26.441  0.00  0.00    +0.134 A 
ATOM     20  CE1 TYR A   1     -11.684  20.369  25.447  0.00  0.00    +0.036 A 
ATOM     21  CD1 TYR A   1     -10.477  19.710  25.288  0.00  0.00    -0.001 A 
BRANCH  19  22
ATOM     22  OH  TYR A   1     -13.767  20.634  26.574  0.00  0.00    -0.506 OA
ATOM     23  HH  TYR A   1     -13.824  21.037  27.477  0.00  0.00    +0.292 HD
ENDBRANCH  19  22
ENDBRANCH  15  16
ENDBRANCH   1  15
TORSDOF 9
REMARK  Name = ../refined-set-2016/3p9l/3p9l_pocket.pdb
REMARK  333 active torsions:
REMARK  status: ('A' for Active; 'I' for Inactive)
REMARK    1  A    between atoms: _1  and  _3
REMARK    2  A    between atoms: _3  and  _4
REMARK    3  A    between atoms: _3  and  _6
REMARK    4  A    between atoms: _6  and  _7
REMARK    5  A    between atoms: _10  and  _12
REMARK    6  A    between atoms: _12  and  _13
REMARK    7  A    between atoms: _12  and  _15
REMARK    8  A    between atoms: _15  and  _16
REMARK    9  A    between atoms: _16  and  _17
REMARK   10  A    between atoms: _17  and  _18
REMARK   11  A    between atoms: _27  and  _29
REMARK   12  A    between atoms: _29  and  _30
REMARK   13  A    between atoms: _29  and  _32
REMARK   14  A    between atoms: _32  and  _33
REMARK   15  A    between atoms: _38  and  _39
REMARK   16  A    between atoms: _41  and  _43
REMARK   17  A    between atoms: _43  and  _44
REMARK   18  A    between atoms: _43  and  _46
REMARK   19  A    between atoms: _46  and  _47
REMARK   20  A    between atoms: _53  and  _55
REMARK   21  A    between atoms: _55  and  _56
REMARK   22  A    between atoms: _55  and  _58
REMARK   23  A    between atoms: _61  and  _63
REMARK   24  A    between atoms: _63  and  _64
REMARK   25  A    between atoms: _63  and  _66
REMARK   26  A    between atoms: _66  and  _67
REMARK   27  A    between atoms: _70  and  _72
REMARK   28  A    between atoms: _72  and  _73
REMARK   29  A    between atoms: _72  and  _75
REMARK   30  A    between atoms: _75  and  _76
REMARK   31  A    between atoms: _81  and  _82
REMARK   32  A    between atoms: _84  and  _86
REMARK   33  A    between atoms: _86  and  _87
REMARK   34  A    between atoms: _86  and  _89
REMARK   35  A    between atoms: _89  and  _90
REMARK   36  A    between atoms: _90  and  _91
REMARK   37  A    between atoms: _93  and  _95
REMARK   38  A    between atoms: _95  and  _96
REMARK   39  A    between atoms: _95  and  _98
REMARK   40  A    between atoms: _98  and  _99
REMARK   41  A    between atoms: _99  and  _100
REMARK   42  A    between atoms: _103  and  _105
REMARK   43  A    between atoms: _105  and  _106
REMARK   44  A    between atoms: _105  and  _108
REMARK   45  A    between atoms: _111  and  _113
REMARK   46  A    between atoms: _113  and  _114
REMARK   47  A    between atoms: _116  and  _118
REMARK   48  A    between atoms: _118  and  _119
REMARK   49  A    between atoms: _118  and  _121
REMARK   50  A    between atoms: _124  and  _126
REMARK   51  A    between atoms: _126  and  _127
REMARK   52  A    between atoms: _126  and  _129
REMARK   53  A    between atoms: _129  and  _130
REMARK   54  A    between atoms: _136  and  _138
REMARK   55  A    between atoms: _138  and  _139
REMARK   56  A    between atoms: _138  and  _141
REMARK   57  A    between atoms: _144  and  _146
REMARK   58  A    between atoms: _146  and  _147
REMARK   59  A    between atoms: _146  and  _149
REMARK   60  A    between atoms: _149  and  _150
REMARK   61  A    between atoms: _156  and  _158
REMARK   62  A    between atoms: _158  and  _159
REMARK   63  A    between atoms: _158  and  _161
REMARK   64  A    between atoms: _161  and  _162
REMARK   65  A    between atoms: _167  and  _168
REMARK   66  A    between atoms: _170  and  _172
REMARK   67  A    between atoms: _172  and  _173
REMARK   68  A    between atoms: _172  and  _175
REMARK   69  A    between atoms: _175  and  _176
REMARK   70  A    between atoms: _176  and  _177
REMARK   71  A    between atoms: _179  and  _181
REMARK   72  A    between atoms: _181  and  _182
REMARK   73  A    between atoms: _181  and  _184
REMARK   74  A    between atoms: _184  and  _185
REMARK   75  A    between atoms: _190  and  _191
REMARK   76  A    between atoms: _193  and  _195
REMARK   77  A    between atoms: _195  and  _196
REMARK   78  A    between atoms: _195  and  _198
REMARK   79  A    between atoms: _198  and  _199
REMARK   80  A    between atoms: _199  and  _200
REMARK   81  A    between atoms: _200  and  _201
REMARK   82  A    between atoms: _210  and  _212
REMARK   83  A    between atoms: _212  and  _213
REMARK   84  A    between atoms: _212  and  _215
REMARK   85  A    between atoms: _215  and  _216
REMARK   86  A    between atoms: _216  and  _217
REMARK   87  A    between atoms: _220  and  _222
REMARK   88  A    between atoms: _222  and  _223
REMARK   89  A    between atoms: _222  and  _225
REMARK   90  A    between atoms: _225  and  _226
REMARK   91  A    between atoms: _226  and  _227
REMARK   92  A    between atoms: _232  and  _234
REMARK   93  A    between atoms: _234  and  _235
REMARK   94  A    between atoms: _234  and  _237
REMARK   95  A    between atoms: _237  and  _238
REMARK   96  A    between atoms: _238  and  _239
REMARK   97  A    between atoms: _239  and  _240
REMARK   98  A    between atoms: _240  and  _241
REMARK   99  A    between atoms: _245  and  _247
REMARK  100  A    between atoms: _247  and  _248
REMARK  101  A    between atoms: _251  and  _253
REMARK  102  A    between atoms: _253  and  _254
REMARK  103  A    between atoms: _256  and  _258
REMARK  104  A    between atoms: _258  and  _259
REMARK  105  A    between atoms: _258  and  _261
REMARK  106  A    between atoms: _261  and  _262
REMARK  107  A    between atoms: _267  and  _269
REMARK  108  A    between atoms: _269  and  _270
REMARK  109  A    between atoms: _269  and  _272
REMARK  110  A    between atoms: _272  and  _273
REMARK  111  A    between atoms: _273  and  _274
REMARK  112  A    between atoms: _277  and  _279
REMARK  113  A    between atoms: _279  and  _280
REMARK  114  A    between atoms: _279  and  _282
REMARK  115  A    between atoms: _282  and  _283
REMARK  116  A    between atoms: _283  and  _284
REMARK  117  A    between atoms: _289  and  _291
REMARK  118  A    between atoms: _291  and  _292
REMARK  119  A    between atoms: _291  and  _294
REMARK  120  A    between atoms: _294  and  _295
REMARK  121  A    between atoms: _297  and  _299
REMARK  122  A    between atoms: _299  and  _300
REMARK  123  A    between atoms: _299  and  _302
REMARK  124  A    between atoms: _302  and  _303
REMARK  125  A    between atoms: _309  and  _311
REMARK  126  A    between atoms: _311  and  _312
REMARK  127  A    between atoms: _311  and  _314
REMARK  128  A    between atoms: _314  and  _315
REMARK  129  A    between atoms: _315  and  _316
REMARK  130  A    between atoms: _316  and  _317
REMARK  131  A    between atoms: _326  and  _328
REMARK  132  A    between atoms: _328  and  _329
REMARK  133  A    between atoms: _328  and  _331
REMARK  134  A    between atoms: _334  and  _336
REMARK  135  A    between atoms: _336  and  _337
REMARK  136  A    between atoms: _336  and  _339
REMARK  137  A    between atoms: _339  and  _340
REMARK  138  A    between atoms: _343  and  _345
REMARK  139  A    between atoms: _345  and  _346
REMARK  140  A    between atoms: _345  and  _348
REMARK  141  A    between atoms: _348  and  _349
REMARK  142  A    between atoms: _352  and  _354
REMARK  143  A    between atoms: _354  and  _355
REMARK  144  A    between atoms: _354  and  _357
REMARK  145  A    between atoms: _357  and  _358
REMARK  146  A    between atoms: _358  and  _359
REMARK  147  A    between atoms: _359  and  _360
REMARK  148  A    between atoms: _369  and  _371
REMARK  149  A    between atoms: _371  and  _372
REMARK  150  A    between atoms: _371  and  _374
REMARK  151  A    between atoms: _374  and  _375
REMARK  152  A    between atoms: _378  and  _380
REMARK  153  A    between atoms: _380  and  _381
REMARK  154  A    between atoms: _380  and  _383
REMARK  155  A    between atoms: _383  and  _384
REMARK  156  A    between atoms: _387  and  _389
REMARK  157  A    between atoms: _389  and  _390
REMARK  158  A    between atoms: _389  and  _392
REMARK  159  A    between atoms: _392  and  _393
REMARK  160  A    between atoms: _398  and  _399
REMARK  161  A    between atoms: _401  and  _403
REMARK  162  A    between atoms: _403  and  _404
REMARK  163  A    between atoms: _403  and  _406
REMARK  164  A    between atoms: _406  and  _407
REMARK  165  A    between atoms: _412  and  _413
REMARK  166  A    between atoms: _415  and  _417
REMARK  167  A    between atoms: _417  and  _418
REMARK  168  A    between atoms: _417  and  _420
REMARK  169  A    between atoms: _420  and  _421
REMARK  170  A    between atoms: _424  and  _426
REMARK  171  A    between atoms: _426  and  _427
REMARK  172  A    between atoms: _426  and  _429
REMARK  173  A    between atoms: _429  and  _430
REMARK  174  A    between atoms: _430  and  _431
REMARK  175  A    between atoms: _436  and  _438
REMARK  176  A    between atoms: _438  and  _439
REMARK  177  A    between atoms: _438  and  _441
REMARK  178  A    between atoms: _444  and  _446
REMARK  179  A    between atoms: _446  and  _447
REMARK  180  A    between atoms: _446  and  _449
REMARK  181  A    between atoms: _449  and  _450
REMARK  182  A    between atoms: _453  and  _455
REMARK  183  A    between atoms: _455  and  _456
REMARK  184  A    between atoms: _455  and  _458
REMARK  185  A    between atoms: _458  and  _459
REMARK  186  A    between atoms: _461  and  _463
REMARK  187  A    between atoms: _463  and  _464
REMARK  188  A    between atoms: _466  and  _468
REMARK  189  A    between atoms: _468  and  _469
REMARK  190  A    between atoms: _468  and  _471
REMARK  191  A    between atoms: _471  and  _472
REMARK  192  A    between atoms: _472  and  _774
REMARK  193  A    between atoms: _473  and  _475
REMARK  194  A    between atoms: _475  and  _476
REMARK  195  A    between atoms: _475  and  _478
REMARK  196  A    between atoms: _478  and  _479
REMARK  197  A    between atoms: _484  and  _485
REMARK  198  A    between atoms: _487  and  _489
REMARK  199  A    between atoms: _489  and  _490
REMARK  200  A    between atoms: _489  and  _492
REMARK  201  A    between atoms: _492  and  _493
REMARK  202  A    between atoms: _493  and  _494
REMARK  203  A    between atoms: _499  and  _501
REMARK  204  A    between atoms: _501  and  _502
REMARK  205  A    between atoms: _501  and  _504
REMARK  206  A    between atoms: _504  and  _505
REMARK  207  A    between atoms: _505  and  _506
REMARK  208  A    between atoms: _511  and  _513
REMARK  209  A    between atoms: _513  and  _514
REMARK  210  A    between atoms: _513  and  _516
REMARK  211  A    between atoms: _516  and  _517
REMARK  212  A    between atoms: _522  and  _523
REMARK  213  A    between atoms: _525  and  _527
REMARK  214  A    between atoms: _527  and  _528
REMARK  215  A    between atoms: _531  and  _533
REMARK  216  A    between atoms: _533  and  _534
REMARK  217  A    between atoms: _533  and  _536
REMARK  218  A    between atoms: _536  and  _537
REMARK  219  A    between atoms: _542  and  _543
REMARK  220  A    between atoms: _545  and  _547
REMARK  221  A    between atoms: _547  and  _548
REMARK  222  A    between atoms: _547  and  _550
REMARK  223  A    between atoms: _550  and  _551
REMARK  224  A    between atoms: _556  and  _557
REMARK  225  A    between atoms: _559  and  _561
REMARK  226  A    between atoms: _561  and  _562
REMARK  227  A    between atoms: _561  and  _564
REMARK  228  A    between atoms: _564  and  _565
REMARK  229  A    between atoms: _568  and  _570
REMARK  230  A    between atoms: _570  and  _571
REMARK  231  A    between atoms: _574  and  _576
REMARK  232  A    between atoms: _576  and  _577
REMARK  233  A    between atoms: _580  and  _582
REMARK  234  A    between atoms: _582  and  _583
REMARK  235  A    between atoms: _582  and  _585
REMARK  236  A    between atoms: _585  and  _586
REMARK  237  A    between atoms: _589  and  _591
REMARK  238  A    between atoms: _591  and  _592
REMARK  239  A    between atoms: _591  and  _594
REMARK  240  A    between atoms: _594  and  _595
REMARK  241  A    between atoms: _598  and  _600
REMARK  242  A    between atoms: _600  and  _601
REMARK  243  A    between atoms: _600  and  _603
REMARK  244  A    between atoms: _603  and  _604
REMARK  245  A    between atoms: _607  and  _609
REMARK  246  A    between atoms: _609  and  _610
REMARK  247  A    between atoms: _609  and  _612
REMARK  248  A    between atoms: _612  and  _613
REMARK  249  A    between atoms: _613  and  _614
REMARK  250  A    between atoms: _614  and  _615
REMARK  251  A    between atoms: _615  and  _616
REMARK  252  A    between atoms: _620  and  _622
REMARK  253  A    between atoms: _622  and  _623
REMARK  254  A    between atoms: _622  and  _625
REMARK  255  A    between atoms: _625  and  _626
REMARK  256  A    between atoms: _631  and  _633
REMARK  257  A    between atoms: _633  and  _634
REMARK  258  A    between atoms: _633  and  _636
REMARK  259  A    between atoms: _636  and  _637
REMARK  260  A    between atoms: _637  and  _638
REMARK  261  A    between atoms: _638  and  _639
REMARK  262  A    between atoms: _639  and  _640
REMARK  263  A    between atoms: _644  and  _646
REMARK  264  A    between atoms: _646  and  _647
REMARK  265  A    between atoms: _646  and  _649
REMARK  266  A    between atoms: _649  and  _650
REMARK  267  A    between atoms: _660  and  _662
REMARK  268  A    between atoms: _662  and  _663
REMARK  269  A    between atoms: _666  and  _668
REMARK  270  A    between atoms: _668  and  _669
REMARK  271  A    between atoms: _671  and  _673
REMARK  272  A    between atoms: _673  and  _674
REMARK  273  A    between atoms: _673  and  _676
REMARK  274  A    between atoms: _676  and  _677
REMARK  275  A    between atoms: _677  and  _678
REMARK  276  A    between atoms: _681  and  _683
REMARK  277  A    between atoms: _683  and  _684
REMARK  278  A    between atoms: _687  and  _689
REMARK  279  A    between atoms: _689  and  _690
REMARK  280  A    between atoms: _689  and  _692
REMARK  281  A    between atoms: _692  and  _693
REMARK  282  A    between atoms: _693  and  _694
REMARK  283  A    between atoms: _694  and  _695
REMARK  284  A    between atoms: _704  and  _706
REMARK  285  A    between atoms: _706  and  _707
REMARK  286  A    between atoms: _706  and  _709
REMARK  287  A    between atoms: _709  and  _710
REMARK  288  A    between atoms: _713  and  _715
REMARK  289  A    between atoms: _715  and  _716
REMARK  290  A    between atoms: _715  and  _718
REMARK  291  A    between atoms: _718  and  _719
REMARK  292  A    between atoms: _719  and  _720
REMARK  293  A    between atoms: _720  and  _721
REMARK  294  A    between atoms: _730  and  _732
REMARK  295  A    between atoms: _732  and  _733
REMARK  296  A    between atoms: _736  and  _738
REMARK  297  A    between atoms: _738  and  _739
REMARK  298  A    between atoms: _738  and  _741
REMARK  299  A    between atoms: _741  and  _742
REMARK  300  A    between atoms: _747  and  _748
REMARK  301  A    between atoms: _750  and  _752
REMARK  302  A    between atoms: _752  and  _753
REMARK  303  A    between atoms: _752  and  _755
REMARK  304  A    between atoms: _755  and  _756
REMARK  305  A    between atoms: _759  and  _761
REMARK  306  A    between atoms: _761  and  _762
REMARK  307  A    between atoms: _761  and  _764
REMARK  308  A    between atoms: _764  and  _765
REMARK  309  A    between atoms: _768  and  _770
REMARK  310  A    between atoms: _770  and  _771
REMARK  311  A    between atoms: _770  and  _773
REMARK  312  A    between atoms: _773  and  _774
REMARK  313  A    between atoms: _775  and  _777
REMARK  314  A    between atoms: _777  and  _778
REMARK  315  A    between atoms: _777  and  _780
REMARK  316  A    between atoms: _783  and  _785
REMARK  317  A    between atoms: _785  and  _786
REMARK  318  A    between atoms: _785  and  _788
REMARK  319  A    between atoms: _788  and  _789
REMARK  320  A    between atoms: _789  and  _790
REMARK  321  A    between atoms: _793  and  _795
REMARK  322  A    between atoms: _795  and  _796
REMARK  323  A    between atoms: _795  and  _798
REMARK  324  A    between atoms: _798  and  _799
REMARK  325  A    between atoms: _809  and  _811
REMARK  326  A    between atoms: _811  and  _812
REMARK  327  A    between atoms: _811  and  _814
REMARK  328  A    between atoms: _814  and  _815
REMARK  329  A    between atoms: _818  and  _820
REMARK  330  A    between atoms: _820  and  _821
REMARK  331  A    between atoms: _820  and  _823
REMARK  332  A    between atoms: _823  and  _824
REMARK  333  A    between atoms: _829  and  _830
REMARK                            x       y       z     vdW  Elec       q    Type
REMARK                         _______ _______ _______ _____ _____    ______ ____
ROOT
ATOM      1  CA  LYS A   6     -13.554  21.598  34.055  0.00  0.00    +0.149 C 
ENDROOT
BRANCH   1   4
ATOM      2  C   THR A   5     -15.201  20.876  32.411  0.00  0.00    +0.243 C 
ATOM      3  O   THR A   5     -15.874  20.282  33.258  0.00  0.00    -0.273 OA
ATOM      4  N   LYS A   6     -14.093  21.544  32.702  0.00  0.00    -0.297 N 
ATOM      5  H   LYS A   6     -13.593  22.045  31.940  0.00  0.00    +0.150 HD
BRANCH   2   6
ATOM      6  CA  THR A   5     -15.610  20.890  30.941  0.00  0.00    +0.176 C 
BRANCH   6   9
ATOM      7  C   ILE A   4     -16.187  23.246  30.935  0.00  0.00    +0.241 C 
ATOM      8  O   ILE A   4     -16.952  23.106  31.899  0.00  0.00    -0.273 OA
ATOM      9  N   THR A   5     -15.522  22.237  30.398  0.00  0.00    -0.295 N 
ATOM     10  H   THR A   5     -14.921  22.411  29.567  0.00  0.00    +0.150 HD
BRANCH   7  11
ATOM     11  CA  ILE A   4     -15.933  24.617  30.301  0.00  0.00    +0.149 C 
BRANCH  11  14
ATOM     12  C   LEU A   3     -13.784  24.983  31.318  0.00  0.00    +0.241 C 
ATOM     13  O   LEU A   3     -14.291  24.907  32.437  0.00  0.00    -0.273 OA
ATOM     14  N   ILE A   4     -14.501  24.864  30.213  0.00  0.00    -0.297 N 
ATOM     15  H   ILE A   4     -14.043  24.947  29.283  0.00  0.00    +0.150 HD
BRANCH  12  16
ATOM     16  CA  LEU A   3     -12.286  25.233  31.141  0.00  0.00    +0.149 C 
BRANCH  16  19
ATOM     17  C   ALA A   2     -11.856  23.257  29.792  0.00  0.00    +0.241 C 
ATOM     18  O   ALA A   2     -12.290  22.533  30.683  0.00  0.00    -0.273 OA
ATOM     19  N   LEU A   3     -11.759  24.578  29.931  0.00  0.00    -0.297 N 
ATOM     20  H   LEU A   3     -11.311  25.148  29.185  0.00  0.00    +0.150 HD
BRANCH  17  21
ATOM     21  CA  ALA A   2     -11.418  22.650  28.459  0.00  0.00    +0.149 C 
ATOM     22  CB  ALA A   2      -9.984  22.121  28.552  0.00  0.00    +0.031 C 
BRANCH  21  25
ATOM     23  C   ALA A   1     -12.737  24.082  26.982  0.00  0.00    +0.238 C 
ATOM     24  O   ALA A   1     -13.796  23.796  27.549  0.00  0.00    -0.274 OA
ATOM     25  N   ALA A   2     -11.557  23.579  27.342  0.00  0.00    -0.297 N 
ATOM     26  H   ALA A   2     -10.708  23.857  26.810  0.00  0.00    +0.150 HD
BRANCH  23  27
ATOM     27  CA  ALA A   1     -12.714  25.068  25.817  0.00  0.00    +0.145 C 
ATOM     28  CB  ALA A   1     -12.674  24.332  24.497  0.00  0.00    +0.028 C 
BRANCH  27  29
ATOM     29  N   ALA A   1     -11.580  25.982  25.936  0.00  0.00    -0.238 NA
ATOM     30  H   ALA A   1     -10.801  25.919  25.250  0.00  0.00    +0.142 HD
ENDBRANCH  27  29
ENDBRANCH  23  27
ENDBRANCH  21  25
ENDBRANCH  17  21
ENDBRANCH  16  19
BRANCH  16  31
ATOM     31  CB  LEU A   3     -12.040  26.737  31.125  0.00  0.00    +0.029 C 
BRANCH  31  32
ATOM     32  CG  LEU A   3     -10.612  27.229  31.339  0.00  0.00    +0.002 C 
ATOM     33  CD2 LEU A   3     -10.028  26.662  32.625  0.00  0.00    +0.000 C 
ATOM     34  CD1 LEU A   3     -10.614  28.744  31.367  0.00  0.00    +0.000 C 
ENDBRANCH  31  32
ENDBRANCH  16  31
ENDBRANCH  12  16
ENDBRANCH  11  14
BRANCH  11  35
ATOM     35  CB  ILE A   4     -16.591  24.707  28.923  0.00  0.00    +0.027 C 
ATOM     36  CG2 ILE A   4     -18.099  24.483  29.024  0.00  0.00    +0.002 C 
BRANCH  35  37
ATOM     37  CG1 ILE A   4     -16.285  26.066  28.290  0.00  0.00    +0.002 C 
ATOM     38  CD1 ILE A   4     -16.842  26.215  26.882  0.00  0.00    +0.000 C 
ENDBRANCH  35  37
ENDBRANCH  11  35
ENDBRANCH   7  11
ENDBRANCH   6   9
BRANCH   6  39
ATOM     39  CB  THR A   5     -14.707  19.947  30.146  0.00  0.00    +0.137 C 
ATOM     40  CG2 THR A   5     -14.651  18.571  30.797  0.00  0.00    +0.034 C 
BRANCH  39  41
ATOM     41  OG1 THR A   5     -15.207  19.842  28.806  0.00  0.00    -0.382 OA
ATOM     42  HG1 THR A   5     -16.130  19.484  28.826  0.00  0.00    +0.210 HD
ENDBRANCH  39  41
ENDBRANCH   6  39
ENDBRANCH   2   6
ENDBRANCH   1   4
BRANCH   1  43
ATOM     43  C   LYS A   6     -14.591  22.105  35.054  0.00  0.00    +0.241 C 
ATOM     44  O   LYS A   6     -14.817  21.489  36.095  0.00  0.00    -0.273 OA
ATOM     45  N   HIS A   7     -15.221  23.230  34.740  0.00  0.00    -0.297 N 
ATOM     46  H   HIS A   7     -15.020  23.694  33.832  0.00  0.00    +0.150 HD
BRANCH  45  47
ATOM     47  CA  HIS A   7     -16.189  23.822  35.649  0.00  0.00    +0.155 C 
BRANCH  47  48
ATOM     48  C   HIS A   7     -17.385  22.889  35.846  0.00  0.00    +0.241 C 
ATOM     49  O   HIS A   7     -17.869  22.725  36.954  0.00  0.00    -0.273 OA
ATOM     50  N   LYS A   8     -17.842  22.273  34.761  0.00  0.00    -0.297 N 
ATOM     51  H   LYS A   8     -17.397  22.470  33.842  0.00  0.00    +0.150 HD
BRANCH  50  52
ATOM     52  CA  LYS A   8     -18.955  21.324  34.825  0.00  0.00    +0.149 C 
BRANCH  52  53
ATOM     53  C   LYS A   8     -18.594  20.115  35.706  0.00  0.00    +0.241 C 
ATOM     54  O   LYS A   8     -19.418  19.621  36.472  0.00  0.00    -0.273 OA
ATOM     55  N   TRP A   9     -17.352  19.652  35.606  0.00  0.00    -0.298 N 
ATOM     56  H   TRP A   9     -16.675  20.131  34.979  0.00  0.00    +0.150 HD
BRANCH  55  57
ATOM     57  CA  TRP A   9     -16.927  18.481  36.364  0.00  0.00    +0.141 C 
BRANCH  57  58
ATOM     58  C   TRP A   9     -16.685  18.816  37.837  0.00  0.00    +0.227 C 
ATOM     59  O   TRP A   9     -16.936  17.997  38.730  0.00  0.00    -0.286 OA
ENDBRANCH  57  58
BRANCH  57  60
ATOM     60  CB  TRP A   9     -15.686  17.843  35.720  0.00  0.00    +0.056 C 
BRANCH  60  61
ATOM     61  CG  TRP A   9     -15.996  17.009  34.494  0.00  0.00    -0.002 A 
ATOM     62  CD1 TRP A   9     -17.227  16.757  33.972  0.00  0.00    +0.068 A 
ATOM     63  NE1 TRP A   9     -17.123  15.952  32.865  0.00  0.00    -0.352 N 
ATOM     64  CE2 TRP A   9     -15.800  15.668  32.645  0.00  0.00    +0.056 A 
ATOM     65  CZ2 TRP A   9     -15.198  14.900  31.645  0.00  0.00    +0.017 A 
ATOM     66  CH2 TRP A   9     -13.834  14.782  31.670  0.00  0.00    +0.001 A 
ATOM     67  CZ3 TRP A   9     -13.062  15.410  32.664  0.00  0.00    +0.000 A 
ATOM     68  CE3 TRP A   9     -13.663  16.175  33.663  0.00  0.00    +0.001 A 
ATOM     69  HE1 TRP A   9     -17.918  15.613  32.287  0.00  0.00    +0.166 HD
ATOM     70  CD2 TRP A   9     -15.057  16.313  33.657  0.00  0.00    +0.013 A 
ENDBRANCH  60  61
ENDBRANCH  57  60
ENDBRANCH  55  57
ENDBRANCH  52  53
BRANCH  52  71
ATOM     71  CB  LYS A   8     -19.329  20.869  33.407  0.00  0.00    +0.029 C 
BRANCH  71  72
ATOM     72  CG  LYS A   8     -20.407  19.806  33.331  0.00  0.00    +0.000 C 
BRANCH  72  73
ATOM     73  CD  LYS A   8     -20.539  19.249  31.907  0.00  0.00    -0.024 C 
BRANCH  73  74
ATOM     74  CE  LYS A   8     -20.586  20.357  30.877  0.00  0.00    -0.086 C 
BRANCH  74  75
ATOM     75  NZ  LYS A   8     -21.155  19.937  29.555  0.00  0.00    +0.380 N 
ATOM     76  HZ1 LYS A   8     -22.130  19.601  29.690  0.00  0.00    -0.089 HD
ATOM     77  HZ2 LYS A   8     -20.575  19.171  29.157  0.00  0.00    -0.089 HD
ATOM     78  HZ3 LYS A   8     -21.154  20.749  28.905  0.00  0.00    -0.089 HD
ENDBRANCH  74  75
ENDBRANCH  73  74
ENDBRANCH  72  73
ENDBRANCH  71  72
ENDBRANCH  52  71
ENDBRANCH  50  52
ENDBRANCH  47  48
BRANCH  47  79
ATOM     79  CB  HIS A   7     -16.622  25.199  35.140  0.00  0.00    +0.076 C 
BRANCH  79  80
ATOM     80  CG  HIS A   7     -15.501  26.190  35.071  0.00  0.00    +0.082 A 
ATOM     81  CD2 HIS A   7     -14.318  26.243  35.728  0.00  0.00    +0.115 A 
ATOM     82  NE2 HIS A   7     -13.658  27.364  35.288  0.00  0.00    -0.221 NA
ATOM     83  CE1 HIS A   7     -14.407  27.976  34.388  0.00  0.00    +0.199 A 
ATOM     84  ND1 HIS A   7     -15.525  27.289  34.238  0.00  0.00    -0.227 NA
ENDBRANCH  79  80
ENDBRANCH  47  79
ENDBRANCH  45  47
ENDBRANCH   1  43
BRANCH   1  85
ATOM     85  CB  LYS A   6     -12.318  22.501  34.087  0.00  0.00    +0.029 C 
BRANCH  85  86
ATOM     86  CG  LYS A   6     -11.699  22.683  35.468  0.00  0.00    +0.000 C 
BRANCH  86  87
ATOM     87  CD  LYS A   6     -10.676  23.828  35.456  0.00  0.00    -0.024 C 
BRANCH  87  88
ATOM     88  CE  LYS A   6     -10.151  24.118  36.871  0.00  0.00    -0.086 C 
BRANCH  88  89
ATOM     89  NZ  LYS A   6      -8.855  23.427  37.111  0.00  0.00    +0.380 N 
ATOM     90  HZ1 LYS A   6      -8.523  23.640  38.073  0.00  0.00    -0.089 HD
ATOM     91  HZ2 LYS A   6      -8.986  22.401  37.007  0.00  0.00    -0.089 HD
ATOM     92  HZ3 LYS A   6      -8.153  23.760  36.419  0.00  0.00    -0.089 HD
ENDBRANCH  88  89
ENDBRANCH  87  88
ENDBRANCH  86  87
ENDBRANCH  85  86
ENDBRANCH   1  85
TORSDOF 38
REMARK  Name = ../refined-set-2016/3p9l/3p9l_pocket.pdb
REMARK  333 active torsions:
REMARK  status: ('A' for Active; 'I' for Inactive)
REMARK    1  A    between atoms: _1  and  _3
REMARK    2  A    between atoms: _3  and  _4
REMARK    3  A    between atoms: _3  and  _6
REMARK    4  A    between atoms: _6  and  _7
REMARK    5  A    between atoms: _10  and  _12
REMARK    6  A    between atoms: _12  and  _13
REMARK    7  A    between atoms: _12  and  _15
REMARK    8  A    between atoms: _15  and  _16
REMARK    9  A    between atoms: _16  and  _17
REMARK   10  A    between atoms: _17  and  _18
REMARK   11  A    between atoms: _27  and  _29
REMARK   12  A    between atoms: _29  and  _30
REMARK   13  A    between atoms: _29  and  _32
REMARK   14  A    between atoms: _32  and  _33
REMARK   15  A    between atoms: _38  and  _39
REMARK   16  A    between atoms: _41  and  _43
REMARK   17  A    between atoms: _43  and  _44
REMARK   18  A    between atoms: _43  and  _46
REMARK   19  A    between atoms: _46  and  _47
REMARK   20  A    between atoms: _53  and  _55
REMARK   21  A    between atoms: _55  and  _56
REMARK   22  A    between atoms: _55  and  _58
REMARK   23  A    between atoms: _61  and  _63
REMARK   24  A    between atoms: _63  and  _64
REMARK   25  A    between atoms: _63  and  _66
REMARK   26  A    between atoms: _66  and  _67
REMARK   27  A    between atoms: _70  and  _72
REMARK   28  A    between atoms: _72  and  _73
REMARK   29  A    between atoms: _72  and  _75
REMARK   30  A    between atoms: _75  and  _76
REMARK   31  A    between atoms: _81  and  _82
REMARK   32  A    between atoms: _84  and  _86
REMARK   33  A    between atoms: _86  and  _87
REMARK   34  A    between atoms: _86  and  _89
REMARK   35  A    between atoms: _89  and  _90
REMARK   36  A    between atoms: _90  and  _91
REMARK   37  A    between atoms: _93  and  _95
REMARK   38  A    between atoms: _95  and  _96
REMARK   39  A    between atoms: _95  and  _98
REMARK   40  A    between atoms: _98  and  _99
REMARK   41  A    between atoms: _99  and  _100
REMARK   42  A    between atoms: _103  and  _105
REMARK   43  A    between atoms: _105  and  _106
REMARK   44  A    between atoms: _105  and  _108
REMARK   45  A    between atoms: _111  and  _113
REMARK   46  A    between atoms: _113  and  _114
REMARK   47  A    between atoms: _116  and  _118
REMARK   48  A    between atoms: _118  and  _119
REMARK   49  A    between atoms: _118  and  _121
REMARK   50  A    between atoms: _124  and  _126
REMARK   51  A    between atoms: _126  and  _127
REMARK   52  A    between atoms: _126  and  _129
REMARK   53  A    between atoms: _129  and  _130
REMARK   54  A    between atoms: _136  and  _138
REMARK   55  A    between atoms: _138  and  _139
REMARK   56  A    between atoms: _138  and  _141
REMARK   57  A    between atoms: _144  and  _146
REMARK   58  A    between atoms: _146  and  _147
REMARK   59  A    between atoms: _146  and  _149
REMARK   60  A    between atoms: _149  and  _150
REMARK   61  A    between atoms: _156  and  _158
REMARK   62  A    between atoms: _158  and  _159
REMARK   63  A    between atoms: _158  and  _161
REMARK   64  A    between atoms: _161  and  _162
REMARK   65  A    between atoms: _167  and  _168
REMARK   66  A    between atoms: _170  and  _172
REMARK   67  A    between atoms: _172  and  _173
REMARK   68  A    between atoms: _172  and  _175
REMARK   69  A    between atoms: _175  and  _176
REMARK   70  A    between atoms: _176  and  _177
REMARK   71  A    between atoms: _179  and  _181
REMARK   72  A    between atoms: _181  and  _182
REMARK   73  A    between atoms: _181  and  _184
REMARK   74  A    between atoms: _184  and  _185
REMARK   75  A    between atoms: _190  and  _191
REMARK   76  A    between atoms: _193  and  _195
REMARK   77  A    between atoms: _195  and  _196
REMARK   78  A    between atoms: _195  and  _198
REMARK   79  A    between atoms: _198  and  _199
REMARK   80  A    between atoms: _199  and  _200
REMARK   81  A    between atoms: _200  and  _201
REMARK   82  A    between atoms: _210  and  _212
REMARK   83  A    between atoms: _212  and  _213
REMARK   84  A    between atoms: _212  and  _215
REMARK   85  A    between atoms: _215  and  _216
REMARK   86  A    between atoms: _216  and  _217
REMARK   87  A    between atoms: _220  and  _222
REMARK   88  A    between atoms: _222  and  _223
REMARK   89  A    between atoms: _222  and  _225
REMARK   90  A    between atoms: _225  and  _226
REMARK   91  A    between atoms: _226  and  _227
REMARK   92  A    between atoms: _232  and  _234
REMARK   93  A    between atoms: _234  and  _235
REMARK   94  A    between atoms: _234  and  _237
REMARK   95  A    between atoms: _237  and  _238
REMARK   96  A    between atoms: _238  and  _239
REMARK   97  A    between atoms: _239  and  _240
REMARK   98  A    between atoms: _240  and  _241
REMARK   99  A    between atoms: _245  and  _247
REMARK  100  A    between atoms: _247  and  _248
REMARK  101  A    between atoms: _251  and  _253
REMARK  102  A    between atoms: _253  and  _254
REMARK  103  A    between atoms: _256  and  _258
REMARK  104  A    between atoms: _258  and  _259
REMARK  105  A    between atoms: _258  and  _261
REMARK  106  A    between atoms: _261  and  _262
REMARK  107  A    between atoms: _267  and  _269
REMARK  108  A    between atoms: _269  and  _270
REMARK  109  A    between atoms: _269  and  _272
REMARK  110  A    between atoms: _272  and  _273
REMARK  111  A    between atoms: _273  and  _274
REMARK  112  A    between atoms: _277  and  _279
REMARK  113  A    between atoms: _279  and  _280
REMARK  114  A    between atoms: _279  and  _282
REMARK  115  A    between atoms: _282  and  _283
REMARK  116  A    between atoms: _283  and  _284
REMARK  117  A    between atoms: _289  and  _291
REMARK  118  A    between atoms: _291  and  _292
REMARK  119  A    between atoms: _291  and  _294
REMARK  120  A    between atoms: _294  and  _295
REMARK  121  A    between atoms: _297  and  _299
REMARK  122  A    between atoms: _299  and  _300
REMARK  123  A    between atoms: _299  and  _302
REMARK  124  A    between atoms: _302  and  _303
REMARK  125  A    between atoms: _309  and  _311
REMARK  126  A    between atoms: _311  and  _312
REMARK  127  A    between atoms: _311  and  _314
REMARK  128  A    between atoms: _314  and  _315
REMARK  129  A    between atoms: _315  and  _316
REMARK  130  A    between atoms: _316  and  _317
REMARK  131  A    between atoms: _326  and  _328
REMARK  132  A    between atoms: _328  and  _329
REMARK  133  A    between atoms: _328  and  _331
REMARK  134  A    between atoms: _334  and  _336
REMARK  135  A    between atoms: _336  and  _337
REMARK  136  A    between atoms: _336  and  _339
REMARK  137  A    between atoms: _339  and  _340
REMARK  138  A    between atoms: _343  and  _345
REMARK  139  A    between atoms: _345  and  _346
REMARK  140  A    between atoms: _345  and  _348
REMARK  141  A    between atoms: _348  and  _349
REMARK  142  A    between atoms: _352  and  _354
REMARK  143  A    between atoms: _354  and  _355
REMARK  144  A    between atoms: _354  and  _357
REMARK  145  A    between atoms: _357  and  _358
REMARK  146  A    between atoms: _358  and  _359
REMARK  147  A    between atoms: _359  and  _360
REMARK  148  A    between atoms: _369  and  _371
REMARK  149  A    between atoms: _371  and  _372
REMARK  150  A    between atoms: _371  and  _374
REMARK  151  A    between atoms: _374  and  _375
REMARK  152  A    between atoms: _378  and  _380
REMARK  153  A    between atoms: _380  and  _381
REMARK  154  A    between atoms: _380  and  _383
REMARK  155  A    between atoms: _383  and  _384
REMARK  156  A    between atoms: _387  and  _389
REMARK  157  A    between atoms: _389  and  _390
REMARK  158  A    between atoms: _389  and  _392
REMARK  159  A    between atoms: _392  and  _393
REMARK  160  A    between atoms: _398  and  _399
REMARK  161  A    between atoms: _401  and  _403
REMARK  162  A    between atoms: _403  and  _404
REMARK  163  A    between atoms: _403  and  _406
REMARK  164  A    between atoms: _406  and  _407
REMARK  165  A    between atoms: _412  and  _413
REMARK  166  A    between atoms: _415  and  _417
REMARK  167  A    between atoms: _417  and  _418
REMARK  168  A    between atoms: _417  and  _420
REMARK  169  A    between atoms: _420  and  _421
REMARK  170  A    between atoms: _424  and  _426
REMARK  171  A    between atoms: _426  and  _427
REMARK  172  A    between atoms: _426  and  _429
REMARK  173  A    between atoms: _429  and  _430
REMARK  174  A    between atoms: _430  and  _431
REMARK  175  A    between atoms: _436  and  _438
REMARK  176  A    between atoms: _438  and  _439
REMARK  177  A    between atoms: _438  and  _441
REMARK  178  A    between atoms: _444  and  _446
REMARK  179  A    between atoms: _446  and  _447
REMARK  180  A    between atoms: _446  and  _449
REMARK  181  A    between atoms: _449  and  _450
REMARK  182  A    between atoms: _453  and  _455
REMARK  183  A    between atoms: _455  and  _456
REMARK  184  A    between atoms: _455  and  _458
REMARK  185  A    between atoms: _458  and  _459
REMARK  186  A    between atoms: _461  and  _463
REMARK  187  A    between atoms: _463  and  _464
REMARK  188  A    between atoms: _466  and  _468
REMARK  189  A    between atoms: _468  and  _469
REMARK  190  A    between atoms: _468  and  _471
REMARK  191  A    between atoms: _471  and  _472
REMARK  192  A    between atoms: _472  and  _774
REMARK  193  A    between atoms: _473  and  _475
REMARK  194  A    between atoms: _475  and  _476
REMARK  195  A    between atoms: _475  and  _478
REMARK  196  A    between atoms: _478  and  _479
REMARK  197  A    between atoms: _484  and  _485
REMARK  198  A    between atoms: _487  and  _489
REMARK  199  A    between atoms: _489  and  _490
REMARK  200  A    between atoms: _489  and  _492
REMARK  201  A    between atoms: _492  and  _493
REMARK  202  A    between atoms: _493  and  _494
REMARK  203  A    between atoms: _499  and  _501
REMARK  204  A    between atoms: _501  and  _502
REMARK  205  A    between atoms: _501  and  _504
REMARK  206  A    between atoms: _504  and  _505
REMARK  207  A    between atoms: _505  and  _506
REMARK  208  A    between atoms: _511  and  _513
REMARK  209  A    between atoms: _513  and  _514
REMARK  210  A    between atoms: _513  and  _516
REMARK  211  A    between atoms: _516  and  _517
REMARK  212  A    between atoms: _522  and  _523
REMARK  213  A    between atoms: _525  and  _527
REMARK  214  A    between atoms: _527  and  _528
REMARK  215  A    between atoms: _531  and  _533
REMARK  216  A    between atoms: _533  and  _534
REMARK  217  A    between atoms: _533  and  _536
REMARK  218  A    between atoms: _536  and  _537
REMARK  219  A    between atoms: _542  and  _543
REMARK  220  A    between atoms: _545  and  _547
REMARK  221  A    between atoms: _547  and  _548
REMARK  222  A    between atoms: _547  and  _550
REMARK  223  A    between atoms: _550  and  _551
REMARK  224  A    between atoms: _556  and  _557
REMARK  225  A    between atoms: _559  and  _561
REMARK  226  A    between atoms: _561  and  _562
REMARK  227  A    between atoms: _561  and  _564
REMARK  228  A    between atoms: _564  and  _565
REMARK  229  A    between atoms: _568  and  _570
REMARK  230  A    between atoms: _570  and  _571
REMARK  231  A    between atoms: _574  and  _576
REMARK  232  A    between atoms: _576  and  _577
REMARK  233  A    between atoms: _580  and  _582
REMARK  234  A    between atoms: _582  and  _583
REMARK  235  A    between atoms: _582  and  _585
REMARK  236  A    between atoms: _585  and  _586
REMARK  237  A    between atoms: _589  and  _591
REMARK  238  A    between atoms: _591  and  _592
REMARK  239  A    between atoms: _591  and  _594
REMARK  240  A    between atoms: _594  and  _595
REMARK  241  A    between atoms: _598  and  _600
REMARK  242  A    between atoms: _600  and  _601
REMARK  243  A    between atoms: _600  and  _603
REMARK  244  A    between atoms: _603  and  _604
REMARK  245  A    between atoms: _607  and  _609
REMARK  246  A    between atoms: _609  and  _610
REMARK  247  A    between atoms: _609  and  _612
REMARK  248  A    between atoms: _612  and  _613
REMARK  249  A    between atoms: _613  and  _614
REMARK  250  A    between atoms: _614  and  _615
REMARK  251  A    between atoms: _615  and  _616
REMARK  252  A    between atoms: _620  and  _622
REMARK  253  A    between atoms: _622  and  _623
REMARK  254  A    between atoms: _622  and  _625
REMARK  255  A    between atoms: _625  and  _626
REMARK  256  A    between atoms: _631  and  _633
REMARK  257  A    between atoms: _633  and  _634
REMARK  258  A    between atoms: _633  and  _636
REMARK  259  A    between atoms: _636  and  _637
REMARK  260  A    between atoms: _637  and  _638
REMARK  261  A    between atoms: _638  and  _639
REMARK  262  A    between atoms: _639  and  _640
REMARK  263  A    between atoms: _644  and  _646
REMARK  264  A    between atoms: _646  and  _647
REMARK  265  A    between atoms: _646  and  _649
REMARK  266  A    between atoms: _649  and  _650
REMARK  267  A    between atoms: _660  and  _662
REMARK  268  A    between atoms: _662  and  _663
REMARK  269  A    between atoms: _666  and  _668
REMARK  270  A    between atoms: _668  and  _669
REMARK  271  A    between atoms: _671  and  _673
REMARK  272  A    between atoms: _673  and  _674
REMARK  273  A    between atoms: _673  and  _676
REMARK  274  A    between atoms: _676  and  _677
REMARK  275  A    between atoms: _677  and  _678
REMARK  276  A    between atoms: _681  and  _683
REMARK  277  A    between atoms: _683  and  _684
REMARK  278  A    between atoms: _687  and  _689
REMARK  279  A    between atoms: _689  and  _690
REMARK  280  A    between atoms: _689  and  _692
REMARK  281  A    between atoms: _692  and  _693
REMARK  282  A    between atoms: _693  and  _694
REMARK  283  A    between atoms: _694  and  _695
REMARK  284  A    between atoms: _704  and  _706
REMARK  285  A    between atoms: _706  and  _707
REMARK  286  A    between atoms: _706  and  _709
REMARK  287  A    between atoms: _709  and  _710
REMARK  288  A    between atoms: _713  and  _715
REMARK  289  A    between atoms: _715  and  _716
REMARK  290  A    between atoms: _715  and  _718
REMARK  291  A    between atoms: _718  and  _719
REMARK  292  A    between atoms: _719  and  _720
REMARK  293  A    between atoms: _720  and  _721
REMARK  294  A    between atoms: _730  and  _732
REMARK  295  A    between atoms: _732  and  _733
REMARK  296  A    between atoms: _736  and  _738
REMARK  297  A    between atoms: _738  and  _739
REMARK  298  A    between atoms: _738  and  _741
REMARK  299  A    between atoms: _741  and  _742
REMARK  300  A    between atoms: _747  and  _748
REMARK  301  A    between atoms: _750  and  _752
REMARK  302  A    between atoms: _752  and  _753
REMARK  303  A    between atoms: _752  and  _755
REMARK  304  A    between atoms: _755  and  _756
REMARK  305  A    between atoms: _759  and  _761
REMARK  306  A    between atoms: _761  and  _762
REMARK  307  A    between atoms: _761  and  _764
REMARK  308  A    between atoms: _764  and  _765
REMARK  309  A    between atoms: _768  and  _770
REMARK  310  A    between atoms: _770  and  _771
REMARK  311  A    between atoms: _770  and  _773
REMARK  312  A    between atoms: _773  and  _774
REMARK  313  A    between atoms: _775  and  _777
REMARK  314  A    between atoms: _777  and  _778
REMARK  315  A    between atoms: _777  and  _780
REMARK  316  A    between atoms: _783  and  _785
REMARK  317  A    between atoms: _785  and  _786
REMARK  318  A    between atoms: _785  and  _788
REMARK  319  A    between atoms: _788  and  _789
REMARK  320  A    between atoms: _789  and  _790
REMARK  321  A    between atoms: _793  and  _795
REMARK  322  A    between atoms: _795  and  _796
REMARK  323  A    between atoms: _795  and  _798
REMARK  324  A    between atoms: _798  and  _799
REMARK  325  A    between atoms: _809  and  _811
REMARK  326  A    between atoms: _811  and  _812
REMARK  327  A    between atoms: _811  and  _814
REMARK  328  A    between atoms: _814  and  _815
REMARK  329  A    between atoms: _818  and  _820
REMARK  330  A    between atoms: _820  and  _821
REMARK  331  A    between atoms: _820  and  _823
REMARK  332  A    between atoms: _823  and  _824
REMARK  333  A    between atoms: _829  and  _830
REMARK                            x       y       z     vdW  Elec       q    Type
REMARK                         _______ _______ _______ _____ _____    ______ ____
ROOT
ATOM      1  CA  GLU A   3     -16.406  14.321  38.894  0.00  0.00    +0.149 C 
ENDROOT
BRANCH   1   4
ATOM      2  C   GLY A   2     -17.359  15.168  40.975  0.00  0.00    +0.243 C 
ATOM      3  O   GLY A   2     -17.358  14.044  41.467  0.00  0.00    -0.273 OA
ATOM      4  N   GLU A   3     -16.917  15.403  39.742  0.00  0.00    -0.297 N 
ATOM      5  H   GLU A   3     -16.934  16.375  39.372  0.00  0.00    +0.150 HD
BRANCH   2   6
ATOM      6  CA  GLY A   2     -17.868  16.369  41.767  0.00  0.00    +0.176 C 
BRANCH   6   8
ATOM      7  C   ALA A   1     -19.927  16.707  40.523  0.00  0.00    +0.238 C 
ATOM      8  N   GLY A   2     -18.783  17.195  40.996  0.00  0.00    -0.296 N 
ATOM      9  H   GLY A   2     -18.538  18.189  40.810  0.00  0.00    +0.150 HD
ATOM     10  O   ALA A   1     -20.326  15.570  40.783  0.00  0.00    -0.274 OA
BRANCH   7  11
ATOM     11  CA  ALA A   1     -20.747  17.630  39.626  0.00  0.00    +0.145 C 
ATOM     12  CB  ALA A   1     -20.959  16.980  38.266  0.00  0.00    +0.028 C 
BRANCH  11  13
ATOM     13  N   ALA A   1     -20.115  18.940  39.470  0.00  0.00    -0.238 NA
ATOM     14  H   ALA A   1     -19.506  19.116  38.645  0.00  0.00    +0.142 HD
ENDBRANCH  11  13
ENDBRANCH   7  11
ENDBRANCH   6   8
ENDBRANCH   2   6
ENDBRANCH   1   4
BRANCH   1  15
ATOM     15  C   GLU A   3     -15.095  13.716  39.416  0.00  0.00    +0.241 C 
ATOM     16  N   ALA A   4     -14.246  14.554  39.998  0.00  0.00    -0.298 N 
ATOM     17  H   ALA A   4     -14.481  15.565  40.059  0.00  0.00    +0.150 HD
ATOM     18  O   GLU A   3     -14.863  12.507  39.304  0.00  0.00    -0.273 OA
BRANCH  16  19
ATOM     19  CA  ALA A   4     -12.990  14.073  40.551  0.00  0.00    +0.137 C 
ATOM     20  CB  ALA A   4     -12.165  15.226  41.073  0.00  0.00    +0.030 C 
BRANCH  19  21
ATOM     21  C   ALA A   4     -13.229  13.030  41.643  0.00  0.00    +0.227 C 
ATOM     22  O   ALA A   4     -12.507  12.029  41.735  0.00  0.00    -0.286 OA
ENDBRANCH  19  21
ENDBRANCH  16  19
ENDBRANCH   1  15
BRANCH   1  23
ATOM     23  CB  GLU A   3     -16.228  14.806  37.458  0.00  0.00    +0.041 C 
BRANCH  23  24
ATOM     24  CG  GLU A   3     -15.519  13.810  36.524  0.00  0.00    +0.116 C 
BRANCH  24  25
ATOM     25  CD  GLU A   3     -16.400  12.643  36.096  0.00  0.00    +0.365 C 
ATOM     26  OE2 GLU A   3     -17.488  12.454  36.679  0.00  0.00    -0.246 OA
ATOM     27  OE1 GLU A   3     -15.996  11.903  35.174  0.00  0.00    -0.246 OA
ENDBRANCH  24  25
ENDBRANCH  23  24
ENDBRANCH   1  23
TORSDOF 11
REMARK  Name = ../refined-set-2016/3p9l/3p9l_pocket.pdb
REMARK  333 active torsions:
REMARK  status: ('A' for Active; 'I' for Inactive)
REMARK    1  A    between atoms: _1  and  _3
REMARK    2  A    between atoms: _3  and  _4
REMARK    3  A    between atoms: _3  and  _6
REMARK    4  A    between atoms: _6  and  _7
REMARK    5  A    between atoms: _10  and  _12
REMARK    6  A    between atoms: _12  and  _13
REMARK    7  A    between atoms: _12  and  _15
REMARK    8  A    between atoms: _15  and  _16
REMARK    9  A    between atoms: _16  and  _17
REMARK   10  A    between atoms: _17  and  _18
REMARK   11  A    between atoms: _27  and  _29
REMARK   12  A    between atoms: _29  and  _30
REMARK   13  A    between atoms: _29  and  _32
REMARK   14  A    between atoms: _32  and  _33
REMARK   15  A    between atoms: _38  and  _39
REMARK   16  A    between atoms: _41  and  _43
REMARK   17  A    between atoms: _43  and  _44
REMARK   18  A    between atoms: _43  and  _46
REMARK   19  A    between atoms: _46  and  _47
REMARK   20  A    between atoms: _53  and  _55
REMARK   21  A    between atoms: _55  and  _56
REMARK   22  A    between atoms: _55  and  _58
REMARK   23  A    between atoms: _61  and  _63
REMARK   24  A    between atoms: _63  and  _64
REMARK   25  A    between atoms: _63  and  _66
REMARK   26  A    between atoms: _66  and  _67
REMARK   27  A    between atoms: _70  and  _72
REMARK   28  A    between atoms: _72  and  _73
REMARK   29  A    between atoms: _72  and  _75
REMARK   30  A    between atoms: _75  and  _76
REMARK   31  A    between atoms: _81  and  _82
REMARK   32  A    between atoms: _84  and  _86
REMARK   33  A    between atoms: _86  and  _87
REMARK   34  A    between atoms: _86  and  _89
REMARK   35  A    between atoms: _89  and  _90
REMARK   36  A    between atoms: _90  and  _91
REMARK   37  A    between atoms: _93  and  _95
REMARK   38  A    between atoms: _95  and  _96
REMARK   39  A    between atoms: _95  and  _98
REMARK   40  A    between atoms: _98  and  _99
REMARK   41  A    between atoms: _99  and  _100
REMARK   42  A    between atoms: _103  and  _105
REMARK   43  A    between atoms: _105  and  _106
REMARK   44  A    between atoms: _105  and  _108
REMARK   45  A    between atoms: _111  and  _113
REMARK   46  A    between atoms: _113  and  _114
REMARK   47  A    between atoms: _116  and  _118
REMARK   48  A    between atoms: _118  and  _119
REMARK   49  A    between atoms: _118  and  _121
REMARK   50  A    between atoms: _124  and  _126
REMARK   51  A    between atoms: _126  and  _127
REMARK   52  A    between atoms: _126  and  _129
REMARK   53  A    between atoms: _129  and  _130
REMARK   54  A    between atoms: _136  and  _138
REMARK   55  A    between atoms: _138  and  _139
REMARK   56  A    between atoms: _138  and  _141
REMARK   57  A    between atoms: _144  and  _146
REMARK   58  A    between atoms: _146  and  _147
REMARK   59  A    between atoms: _146  and  _149
REMARK   60  A    between atoms: _149  and  _150
REMARK   61  A    between atoms: _156  and  _158
REMARK   62  A    between atoms: _158  and  _159
REMARK   63  A    between atoms: _158  and  _161
REMARK   64  A    between atoms: _161  and  _162
REMARK   65  A    between atoms: _167  and  _168
REMARK   66  A    between atoms: _170  and  _172
REMARK   67  A    between atoms: _172  and  _173
REMARK   68  A    between atoms: _172  and  _175
REMARK   69  A    between atoms: _175  and  _176
REMARK   70  A    between atoms: _176  and  _177
REMARK   71  A    between atoms: _179  and  _181
REMARK   72  A    between atoms: _181  and  _182
REMARK   73  A    between atoms: _181  and  _184
REMARK   74  A    between atoms: _184  and  _185
REMARK   75  A    between atoms: _190  and  _191
REMARK   76  A    between atoms: _193  and  _195
REMARK   77  A    between atoms: _195  and  _196
REMARK   78  A    between atoms: _195  and  _198
REMARK   79  A    between atoms: _198  and  _199
REMARK   80  A    between atoms: _199  and  _200
REMARK   81  A    between atoms: _200  and  _201
REMARK   82  A    between atoms: _210  and  _212
REMARK   83  A    between atoms: _212  and  _213
REMARK   84  A    between atoms: _212  and  _215
REMARK   85  A    between atoms: _215  and  _216
REMARK   86  A    between atoms: _216  and  _217
REMARK   87  A    between atoms: _220  and  _222
REMARK   88  A    between atoms: _222  and  _223
REMARK   89  A    between atoms: _222  and  _225
REMARK   90  A    between atoms: _225  and  _226
REMARK   91  A    between atoms: _226  and  _227
REMARK   92  A    between atoms: _232  and  _234
REMARK   93  A    between atoms: _234  and  _235
REMARK   94  A    between atoms: _234  and  _237
REMARK   95  A    between atoms: _237  and  _238
REMARK   96  A    between atoms: _238  and  _239
REMARK   97  A    between atoms: _239  and  _240
REMARK   98  A    between atoms: _240  and  _241
REMARK   99  A    between atoms: _245  and  _247
REMARK  100  A    between atoms: _247  and  _248
REMARK  101  A    between atoms: _251  and  _253
REMARK  102  A    between atoms: _253  and  _254
REMARK  103  A    between atoms: _256  and  _258
REMARK  104  A    between atoms: _258  and  _259
REMARK  105  A    between atoms: _258  and  _261
REMARK  106  A    between atoms: _261  and  _262
REMARK  107  A    between atoms: _267  and  _269
REMARK  108  A    between atoms: _269  and  _270
REMARK  109  A    between atoms: _269  and  _272
REMARK  110  A    between atoms: _272  and  _273
REMARK  111  A    between atoms: _273  and  _274
REMARK  112  A    between atoms: _277  and  _279
REMARK  113  A    between atoms: _279  and  _280
REMARK  114  A    between atoms: _279  and  _282
REMARK  115  A    between atoms: _282  and  _283
REMARK  116  A    between atoms: _283  and  _284
REMARK  117  A    between atoms: _289  and  _291
REMARK  118  A    between atoms: _291  and  _292
REMARK  119  A    between atoms: _291  and  _294
REMARK  120  A    between atoms: _294  and  _295
REMARK  121  A    between atoms: _297  and  _299
REMARK  122  A    between atoms: _299  and  _300
REMARK  123  A    between atoms: _299  and  _302
REMARK  124  A    between atoms: _302  and  _303
REMARK  125  A    between atoms: _309  and  _311
REMARK  126  A    between atoms: _311  and  _312
REMARK  127  A    between atoms: _311  and  _314
REMARK  128  A    between atoms: _314  and  _315
REMARK  129  A    between atoms: _315  and  _316
REMARK  130  A    between atoms: _316  and  _317
REMARK  131  A    between atoms: _326  and  _328
REMARK  132  A    between atoms: _328  and  _329
REMARK  133  A    between atoms: _328  and  _331
REMARK  134  A    between atoms: _334  and  _336
REMARK  135  A    between atoms: _336  and  _337
REMARK  136  A    between atoms: _336  and  _339
REMARK  137  A    between atoms: _339  and  _340
REMARK  138  A    between atoms: _343  and  _345
REMARK  139  A    between atoms: _345  and  _346
REMARK  140  A    between atoms: _345  and  _348
REMARK  141  A    between atoms: _348  and  _349
REMARK  142  A    between atoms: _352  and  _354
REMARK  143  A    between atoms: _354  and  _355
REMARK  144  A    between atoms: _354  and  _357
REMARK  145  A    between atoms: _357  and  _358
REMARK  146  A    between atoms: _358  and  _359
REMARK  147  A    between atoms: _359  and  _360
REMARK  148  A    between atoms: _369  and  _371
REMARK  149  A    between atoms: _371  and  _372
REMARK  150  A    between atoms: _371  and  _374
REMARK  151  A    between atoms: _374  and  _375
REMARK  152  A    between atoms: _378  and  _380
REMARK  153  A    between atoms: _380  and  _381
REMARK  154  A    between atoms: _380  and  _383
REMARK  155  A    between atoms: _383  and  _384
REMARK  156  A    between atoms: _387  and  _389
REMARK  157  A    between atoms: _389  and  _390
REMARK  158  A    between atoms: _389  and  _392
REMARK  159  A    between atoms: _392  and  _393
REMARK  160  A    between atoms: _398  and  _399
REMARK  161  A    between atoms: _401  and  _403
REMARK  162  A    between atoms: _403  and  _404
REMARK  163  A    between atoms: _403  and  _406
REMARK  164  A    between atoms: _406  and  _407
REMARK  165  A    between atoms: _412  and  _413
REMARK  166  A    between atoms: _415  and  _417
REMARK  167  A    between atoms: _417  and  _418
REMARK  168  A    between atoms: _417  and  _420
REMARK  169  A    between atoms: _420  and  _421
REMARK  170  A    between atoms: _424  and  _426
REMARK  171  A    between atoms: _426  and  _427
REMARK  172  A    between atoms: _426  and  _429
REMARK  173  A    between atoms: _429  and  _430
REMARK  174  A    between atoms: _430  and  _431
REMARK  175  A    between atoms: _436  and  _438
REMARK  176  A    between atoms: _438  and  _439
REMARK  177  A    between atoms: _438  and  _441
REMARK  178  A    between atoms: _444  and  _446
REMARK  179  A    between atoms: _446  and  _447
REMARK  180  A    between atoms: _446  and  _449
REMARK  181  A    between atoms: _449  and  _450
REMARK  182  A    between atoms: _453  and  _455
REMARK  183  A    between atoms: _455  and  _456
REMARK  184  A    between atoms: _455  and  _458
REMARK  185  A    between atoms: _458  and  _459
REMARK  186  A    between atoms: _461  and  _463
REMARK  187  A    between atoms: _463  and  _464
REMARK  188  A    between atoms: _466  and  _468
REMARK  189  A    between atoms: _468  and  _469
REMARK  190  A    between atoms: _468  and  _471
REMARK  191  A    between atoms: _471  and  _472
REMARK  192  A    between atoms: _472  and  _774
REMARK  193  A    between atoms: _473  and  _475
REMARK  194  A    between atoms: _475  and  _476
REMARK  195  A    between atoms: _475  and  _478
REMARK  196  A    between atoms: _478  and  _479
REMARK  197  A    between atoms: _484  and  _485
REMARK  198  A    between atoms: _487  and  _489
REMARK  199  A    between atoms: _489  and  _490
REMARK  200  A    between atoms: _489  and  _492
REMARK  201  A    between atoms: _492  and  _493
REMARK  202  A    between atoms: _493  and  _494
REMARK  203  A    between atoms: _499  and  _501
REMARK  204  A    between atoms: _501  and  _502
REMARK  205  A    between atoms: _501  and  _504
REMARK  206  A    between atoms: _504  and  _505
REMARK  207  A    between atoms: _505  and  _506
REMARK  208  A    between atoms: _511  and  _513
REMARK  209  A    between atoms: _513  and  _514
REMARK  210  A    between atoms: _513  and  _516
REMARK  211  A    between atoms: _516  and  _517
REMARK  212  A    between atoms: _522  and  _523
REMARK  213  A    between atoms: _525  and  _527
REMARK  214  A    between atoms: _527  and  _528
REMARK  215  A    between atoms: _531  and  _533
REMARK  216  A    between atoms: _533  and  _534
REMARK  217  A    between atoms: _533  and  _536
REMARK  218  A    between atoms: _536  and  _537
REMARK  219  A    between atoms: _542  and  _543
REMARK  220  A    between atoms: _545  and  _547
REMARK  221  A    between atoms: _547  and  _548
REMARK  222  A    between atoms: _547  and  _550
REMARK  223  A    between atoms: _550  and  _551
REMARK  224  A    between atoms: _556  and  _557
REMARK  225  A    between atoms: _559  and  _561
REMARK  226  A    between atoms: _561  and  _562
REMARK  227  A    between atoms: _561  and  _564
REMARK  228  A    between atoms: _564  and  _565
REMARK  229  A    between atoms: _568  and  _570
REMARK  230  A    between atoms: _570  and  _571
REMARK  231  A    between atoms: _574  and  _576
REMARK  232  A    between atoms: _576  and  _577
REMARK  233  A    between atoms: _580  and  _582
REMARK  234  A    between atoms: _582  and  _583
REMARK  235  A    between atoms: _582  and  _585
REMARK  236  A    between atoms: _585  and  _586
REMARK  237  A    between atoms: _589  and  _591
REMARK  238  A    between atoms: _591  and  _592
REMARK  239  A    between atoms: _591  and  _594
REMARK  240  A    between atoms: _594  and  _595
REMARK  241  A    between atoms: _598  and  _600
REMARK  242  A    between atoms: _600  and  _601
REMARK  243  A    between atoms: _600  and  _603
REMARK  244  A    between atoms: _603  and  _604
REMARK  245  A    between atoms: _607  and  _609
REMARK  246  A    between atoms: _609  and  _610
REMARK  247  A    between atoms: _609  and  _612
REMARK  248  A    between atoms: _612  and  _613
REMARK  249  A    between atoms: _613  and  _614
REMARK  250  A    between atoms: _614  and  _615
REMARK  251  A    between atoms: _615  and  _616
REMARK  252  A    between atoms: _620  and  _622
REMARK  253  A    between atoms: _622  and  _623
REMARK  254  A    between atoms: _622  and  _625
REMARK  255  A    between atoms: _625  and  _626
REMARK  256  A    between atoms: _631  and  _633
REMARK  257  A    between atoms: _633  and  _634
REMARK  258  A    between atoms: _633  and  _636
REMARK  259  A    between atoms: _636  and  _637
REMARK  260  A    between atoms: _637  and  _638
REMARK  261  A    between atoms: _638  and  _639
REMARK  262  A    between atoms: _639  and  _640
REMARK  263  A    between atoms: _644  and  _646
REMARK  264  A    between atoms: _646  and  _647
REMARK  265  A    between atoms: _646  and  _649
REMARK  266  A    between atoms: _649  and  _650
REMARK  267  A    between atoms: _660  and  _662
REMARK  268  A    between atoms: _662  and  _663
REMARK  269  A    between atoms: _666  and  _668
REMARK  270  A    between atoms: _668  and  _669
REMARK  271  A    between atoms: _671  and  _673
REMARK  272  A    between atoms: _673  and  _674
REMARK  273  A    between atoms: _673  and  _676
REMARK  274  A    between atoms: _676  and  _677
REMARK  275  A    between atoms: _677  and  _678
REMARK  276  A    between atoms: _681  and  _683
REMARK  277  A    between atoms: _683  and  _684
REMARK  278  A    between atoms: _687  and  _689
REMARK  279  A    between atoms: _689  and  _690
REMARK  280  A    between atoms: _689  and  _692
REMARK  281  A    between atoms: _692  and  _693
REMARK  282  A    between atoms: _693  and  _694
REMARK  283  A    between atoms: _694  and  _695
REMARK  284  A    between atoms: _704  and  _706
REMARK  285  A    between atoms: _706  and  _707
REMARK  286  A    between atoms: _706  and  _709
REMARK  287  A    between atoms: _709  and  _710
REMARK  288  A    between atoms: _713  and  _715
REMARK  289  A    between atoms: _715  and  _716
REMARK  290  A    between atoms: _715  and  _718
REMARK  291  A    between atoms: _718  and  _719
REMARK  292  A    between atoms: _719  and  _720
REMARK  293  A    between atoms: _720  and  _721
REMARK  294  A    between atoms: _730  and  _732
REMARK  295  A    between atoms: _732  and  _733
REMARK  296  A    between atoms: _736  and  _738
REMARK  297  A    between atoms: _738  and  _739
REMARK  298  A    between atoms: _738  and  _741
REMARK  299  A    between atoms: _741  and  _742
REMARK  300  A    between atoms: _747  and  _748
REMARK  301  A    between atoms: _750  and  _752
REMARK  302  A    between atoms: _752  and  _753
REMARK  303  A    between atoms: _752  and  _755
REMARK  304  A    between atoms: _755  and  _756
REMARK  305  A    between atoms: _759  and  _761
REMARK  306  A    between atoms: _761  and  _762
REMARK  307  A    between atoms: _761  and  _764
REMARK  308  A    between atoms: _764  and  _765
REMARK  309  A    between atoms: _768  and  _770
REMARK  310  A    between atoms: _770  and  _771
REMARK  311  A    between atoms: _770  and  _773
REMARK  312  A    between atoms: _773  and  _774
REMARK  313  A    between atoms: _775  and  _777
REMARK  314  A    between atoms: _777  and  _778
REMARK  315  A    between atoms: _777  and  _780
REMARK  316  A    between atoms: _783  and  _785
REMARK  317  A    between atoms: _785  and  _786
REMARK  318  A    between atoms: _785  and  _788
REMARK  319  A    between atoms: _788  and  _789
REMARK  320  A    between atoms: _789  and  _790
REMARK  321  A    between atoms: _793  and  _795
REMARK  322  A    between atoms: _795  and  _796
REMARK  323  A    between atoms: _795  and  _798
REMARK  324  A    between atoms: _798  and  _799
REMARK  325  A    between atoms: _809  and  _811
REMARK  326  A    between atoms: _811  and  _812
REMARK  327  A    between atoms: _811  and  _814
REMARK  328  A    between atoms: _814  and  _815
REMARK  329  A    between atoms: _818  and  _820
REMARK  330  A    between atoms: _820  and  _821
REMARK  331  A    between atoms: _820  and  _823
REMARK  332  A    between atoms: _823  and  _824
REMARK  333  A    between atoms: _829  and  _830
REMARK                            x       y       z     vdW  Elec       q    Type
REMARK                         _______ _______ _______ _____ _____    ______ ____
ROOT
ATOM      1  CA  ARG A   3     -10.970   8.828  42.833  0.00  0.00    +0.149 C 
ENDROOT
BRANCH   1   2
ATOM      2  C   ARG A   3     -11.504   7.482  43.318  0.00  0.00    +0.241 C 
ATOM      3  O   ARG A   3     -10.739   6.546  43.567  0.00  0.00    -0.273 OA
ATOM      4  N   ALA A   4     -12.821   7.401  43.463  0.00  0.00    -0.297 N 
ATOM      5  H   ALA A   4     -13.406   8.223  43.212  0.00  0.00    +0.150 HD
BRANCH   4   6
ATOM      6  CA  ALA A   4     -13.472   6.199  43.962  0.00  0.00    +0.149 C 
ATOM      7  CB  ALA A   4     -14.960   6.447  44.155  0.00  0.00    +0.031 C 
BRANCH   6   8
ATOM      8  C   ALA A   4     -13.244   5.039  43.002  0.00  0.00    +0.241 C 
ATOM      9  O   ALA A   4     -12.965   3.916  43.419  0.00  0.00    -0.273 OA
ATOM     10  N   TYR A   5     -13.364   5.315  41.712  0.00  0.00    -0.297 N 
ATOM     11  H   TYR A   5     -13.664   6.266  41.415  0.00  0.00    +0.150 HD
BRANCH  10  12
ATOM     12  CA  TYR A   5     -13.082   4.306  40.710  0.00  0.00    +0.153 C 
BRANCH  12  13
ATOM     13  C   TYR A   5     -11.603   3.931  40.736  0.00  0.00    +0.241 C 
ATOM     14  N   LEU A   6     -10.727   4.926  40.789  0.00  0.00    -0.298 N 
ATOM     15  H   LEU A   6     -11.058   5.905  40.911  0.00  0.00    +0.150 HD
ATOM     16  O   TYR A   5     -11.255   2.765  40.717  0.00  0.00    -0.273 OA
BRANCH  14  17
ATOM     17  CA  LEU A   6      -9.304   4.647  40.677  0.00  0.00    +0.137 C 
BRANCH  17  18
ATOM     18  C   LEU A   6      -8.783   3.855  41.869  0.00  0.00    +0.227 C 
ATOM     19  O   LEU A   6      -8.034   2.885  41.702  0.00  0.00    -0.286 OA
ENDBRANCH  17  18
BRANCH  17  20
ATOM     20  CB  LEU A   6      -8.513   5.940  40.500  0.00  0.00    +0.028 C 
BRANCH  20  21
ATOM     21  CG  LEU A   6      -8.808   6.660  39.182  0.00  0.00    +0.002 C 
ATOM     22  CD2 LEU A   6      -8.219   8.066  39.201  0.00  0.00    +0.000 C 
ATOM     23  CD1 LEU A   6      -8.290   5.844  37.977  0.00  0.00    +0.000 C 
ENDBRANCH  20  21
ENDBRANCH  17  20
ENDBRANCH  14  17
ENDBRANCH  12  13
BRANCH  12  24
ATOM     24  CB  TYR A   5     -13.462   4.798  39.308  0.00  0.00    +0.055 C 
BRANCH  24  25
ATOM     25  CG  TYR A   5     -12.915   3.896  38.222  0.00  0.00    -0.020 A 
ATOM     26  CD2 TYR A   5     -13.585   2.736  37.848  0.00  0.00    -0.001 A 
ATOM     27  CE2 TYR A   5     -13.075   1.899  36.866  0.00  0.00    +0.036 A 
ATOM     28  CZ  TYR A   5     -11.879   2.222  36.256  0.00  0.00    +0.134 A 
ATOM     29  CE1 TYR A   5     -11.198   3.362  36.616  0.00  0.00    +0.036 A 
ATOM     30  CD1 TYR A   5     -11.712   4.188  37.593  0.00  0.00    -0.001 A 
BRANCH  28  31
ATOM     31  OH  TYR A   5     -11.350   1.408  35.285  0.00  0.00    -0.506 OA
ATOM     32  HH  TYR A   5     -11.952   0.635  35.140  0.00  0.00    +0.292 HD
ENDBRANCH  28  31
ENDBRANCH  24  25
ENDBRANCH  12  24
ENDBRANCH  10  12
ENDBRANCH   6   8
ENDBRANCH   4   6
ENDBRANCH   1   2
BRANCH   1  34
ATOM     33  C   LEU A   2     -11.980   8.627  40.664  0.00  0.00    +0.241 C 
ATOM     34  N   ARG A   3     -11.797   9.358  41.759  0.00  0.00    -0.297 N 
ATOM     35  H   ARG A   3     -12.239  10.295  41.847  0.00  0.00    +0.150 HD
ATOM     36  O   LEU A   2     -11.434   7.527  40.500  0.00  0.00    -0.273 OA
BRANCH  33  37
ATOM     37  CA  LEU A   2     -12.884   9.214  39.593  0.00  0.00    +0.149 C 
BRANCH  37  40
ATOM     38  C   ARG A   1     -15.052   9.059  40.711  0.00  0.00    +0.238 C 
ATOM     39  O   ARG A   1     -14.987   7.825  40.779  0.00  0.00    -0.274 OA
ATOM     40  N   LEU A   2     -14.100   9.805  40.151  0.00  0.00    -0.297 N 
ATOM     41  H   LEU A   2     -14.225  10.837  40.110  0.00  0.00    +0.150 HD
BRANCH  38  42
ATOM     42  CA  ARG A   1     -16.265   9.818  41.266  0.00  0.00    +0.145 C 
BRANCH  42  43
ATOM     43  N   ARG A   1     -15.856  11.035  41.968  0.00  0.00    -0.238 NA
ATOM     44  H   ARG A   1     -16.226  11.955  41.653  0.00  0.00    +0.142 HD
ENDBRANCH  42  43
BRANCH  42  45
ATOM     45  CB  ARG A   1     -17.221  10.168  40.125  0.00  0.00    +0.030 C 
BRANCH  45  46
ATOM     46  CG  ARG A   1     -17.938   8.974  39.504  0.00  0.00    +0.045 C 
BRANCH  46  47
ATOM     47  CD  ARG A   1     -18.804   9.407  38.325  0.00  0.00    +0.174 C 
BRANCH  47  48
ATOM     48  NE  ARG A   1     -18.023   9.689  37.115  0.00  0.00    -0.265 N 
ATOM     49  HE  ARG A   1     -17.681  10.660  36.969  0.00  0.00    +0.259 HD
ATOM     50  CZ  ARG A   1     -17.726   8.776  36.194  0.00  0.00    +0.342 C 
ATOM     51  NH2 ARG A   1     -18.137   7.517  36.344  0.00  0.00    -0.292 N 
ATOM     52 HH21 ARG A   1     -18.691   7.247  37.182  0.00  0.00    +0.255 HD
ATOM     53 HH22 ARG A   1     -17.904   6.805  35.623  0.00  0.00    +0.255 HD
ATOM     54  NH1 ARG A   1     -17.031   9.116  35.117  0.00  0.00    -0.292 N 
ATOM     55 HH11 ARG A   1     -16.716  10.099  34.990  0.00  0.00    +0.255 HD
ATOM     56 HH12 ARG A   1     -16.801   8.400  34.399  0.00  0.00    +0.255 HD
ENDBRANCH  47  48
ENDBRANCH  46  47
ENDBRANCH  45  46
ENDBRANCH  42  45
ENDBRANCH  38  42
ENDBRANCH  37  40
BRANCH  37  57
ATOM     57  CB  LEU A   2     -12.111  10.239  38.762  0.00  0.00    +0.029 C 
BRANCH  57  58
ATOM     58  CG  LEU A   2     -12.328  10.206  37.247  0.00  0.00    +0.002 C 
ATOM     59  CD2 LEU A   2     -13.795  10.299  36.917  0.00  0.00    +0.000 C 
ATOM     60  CD1 LEU A   2     -11.721   8.938  36.653  0.00  0.00    +0.000 C 
ENDBRANCH  57  58
ENDBRANCH  37  57
ENDBRANCH  33  37
ENDBRANCH   1  34
BRANCH   1  61
ATOM     61  CB  ARG A   3     -10.890   9.805  44.007  0.00  0.00    +0.033 C 
BRANCH  61  62
ATOM     62  CG  ARG A   3      -9.999   9.302  45.131  0.00  0.00    +0.045 C 
BRANCH  62  63
ATOM     63  CD  ARG A   3      -9.832  10.344  46.236  0.00  0.00    +0.174 C 
BRANCH  63  64
ATOM     64  NE  ARG A   3      -8.640  10.061  47.028  0.00  0.00    -0.265 N 
ATOM     65  CZ  ARG A   3      -8.175  10.839  48.001  0.00  0.00    +0.342 C 
ATOM     66  NH2 ARG A   3      -7.080  10.487  48.661  0.00  0.00    -0.292 N 
ATOM     67 HH21 ARG A   3      -6.714  11.094  49.422  0.00  0.00    +0.255 HD
ATOM     68 HH22 ARG A   3      -6.587   9.604  48.417  0.00  0.00    +0.255 HD
ATOM     69  NH1 ARG A   3      -8.800  11.966  48.316  0.00  0.00    -0.292 N 
ATOM     70 HH11 ARG A   3      -8.431  12.570  49.078  0.00  0.00    +0.255 HD
ATOM     71 HH12 ARG A   3      -9.659  12.246  47.801  0.00  0.00    +0.255 HD
ATOM     72  HE  ARG A   3      -8.116   9.188  46.816  0.00  0.00    +0.259 HD
ENDBRANCH  63  64
ENDBRANCH  62  63
ENDBRANCH  61  62
ENDBRANCH   1  61
TORSDOF 27
REMARK  Name = ../refined-set-2016/3p9l/3p9l_pocket.pdb
REMARK  333 active torsions:
REMARK  status: ('A' for Active; 'I' for Inactive)
REMARK    1  A    between atoms: _1  and  _3
REMARK    2  A    between atoms: _3  and  _4
REMARK    3  A    between atoms: _3  and  _6
REMARK    4  A    between atoms: _6  and  _7
REMARK    5  A    between atoms: _10  and  _12
REMARK    6  A    between atoms: _12  and  _13
REMARK    7  A    between atoms: _12  and  _15
REMARK    8  A    between atoms: _15  and  _16
REMARK    9  A    between atoms: _16  and  _17
REMARK   10  A    between atoms: _17  and  _18
REMARK   11  A    between atoms: _27  and  _29
REMARK   12  A    between atoms: _29  and  _30
REMARK   13  A    between atoms: _29  and  _32
REMARK   14  A    between atoms: _32  and  _33
REMARK   15  A    between atoms: _38  and  _39
REMARK   16  A    between atoms: _41  and  _43
REMARK   17  A    between atoms: _43  and  _44
REMARK   18  A    between atoms: _43  and  _46
REMARK   19  A    between atoms: _46  and  _47
REMARK   20  A    between atoms: _53  and  _55
REMARK   21  A    between atoms: _55  and  _56
REMARK   22  A    between atoms: _55  and  _58
REMARK   23  A    between atoms: _61  and  _63
REMARK   24  A    between atoms: _63  and  _64
REMARK   25  A    between atoms: _63  and  _66
REMARK   26  A    between atoms: _66  and  _67
REMARK   27  A    between atoms: _70  and  _72
REMARK   28  A    between atoms: _72  and  _73
REMARK   29  A    between atoms: _72  and  _75
REMARK   30  A    between atoms: _75  and  _76
REMARK   31  A    between atoms: _81  and  _82
REMARK   32  A    between atoms: _84  and  _86
REMARK   33  A    between atoms: _86  and  _87
REMARK   34  A    between atoms: _86  and  _89
REMARK   35  A    between atoms: _89  and  _90
REMARK   36  A    between atoms: _90  and  _91
REMARK   37  A    between atoms: _93  and  _95
REMARK   38  A    between atoms: _95  and  _96
REMARK   39  A    between atoms: _95  and  _98
REMARK   40  A    between atoms: _98  and  _99
REMARK   41  A    between atoms: _99  and  _100
REMARK   42  A    between atoms: _103  and  _105
REMARK   43  A    between atoms: _105  and  _106
REMARK   44  A    between atoms: _105  and  _108
REMARK   45  A    between atoms: _111  and  _113
REMARK   46  A    between atoms: _113  and  _114
REMARK   47  A    between atoms: _116  and  _118
REMARK   48  A    between atoms: _118  and  _119
REMARK   49  A    between atoms: _118  and  _121
REMARK   50  A    between atoms: _124  and  _126
REMARK   51  A    between atoms: _126  and  _127
REMARK   52  A    between atoms: _126  and  _129
REMARK   53  A    between atoms: _129  and  _130
REMARK   54  A    between atoms: _136  and  _138
REMARK   55  A    between atoms: _138  and  _139
REMARK   56  A    between atoms: _138  and  _141
REMARK   57  A    between atoms: _144  and  _146
REMARK   58  A    between atoms: _146  and  _147
REMARK   59  A    between atoms: _146  and  _149
REMARK   60  A    between atoms: _149  and  _150
REMARK   61  A    between atoms: _156  and  _158
REMARK   62  A    between atoms: _158  and  _159
REMARK   63  A    between atoms: _158  and  _161
REMARK   64  A    between atoms: _161  and  _162
REMARK   65  A    between atoms: _167  and  _168
REMARK   66  A    between atoms: _170  and  _172
REMARK   67  A    between atoms: _172  and  _173
REMARK   68  A    between atoms: _172  and  _175
REMARK   69  A    between atoms: _175  and  _176
REMARK   70  A    between atoms: _176  and  _177
REMARK   71  A    between atoms: _179  and  _181
REMARK   72  A    between atoms: _181  and  _182
REMARK   73  A    between atoms: _181  and  _184
REMARK   74  A    between atoms: _184  and  _185
REMARK   75  A    between atoms: _190  and  _191
REMARK   76  A    between atoms: _193  and  _195
REMARK   77  A    between atoms: _195  and  _196
REMARK   78  A    between atoms: _195  and  _198
REMARK   79  A    between atoms: _198  and  _199
REMARK   80  A    between atoms: _199  and  _200
REMARK   81  A    between atoms: _200  and  _201
REMARK   82  A    between atoms: _210  and  _212
REMARK   83  A    between atoms: _212  and  _213
REMARK   84  A    between atoms: _212  and  _215
REMARK   85  A    between atoms: _215  and  _216
REMARK   86  A    between atoms: _216  and  _217
REMARK   87  A    between atoms: _220  and  _222
REMARK   88  A    between atoms: _222  and  _223
REMARK   89  A    between atoms: _222  and  _225
REMARK   90  A    between atoms: _225  and  _226
REMARK   91  A    between atoms: _226  and  _227
REMARK   92  A    between atoms: _232  and  _234
REMARK   93  A    between atoms: _234  and  _235
REMARK   94  A    between atoms: _234  and  _237
REMARK   95  A    between atoms: _237  and  _238
REMARK   96  A    between atoms: _238  and  _239
REMARK   97  A    between atoms: _239  and  _240
REMARK   98  A    between atoms: _240  and  _241
REMARK   99  A    between atoms: _245  and  _247
REMARK  100  A    between atoms: _247  and  _248
REMARK  101  A    between atoms: _251  and  _253
REMARK  102  A    between atoms: _253  and  _254
REMARK  103  A    between atoms: _256  and  _258
REMARK  104  A    between atoms: _258  and  _259
REMARK  105  A    between atoms: _258  and  _261
REMARK  106  A    between atoms: _261  and  _262
REMARK  107  A    between atoms: _267  and  _269
REMARK  108  A    between atoms: _269  and  _270
REMARK  109  A    between atoms: _269  and  _272
REMARK  110  A    between atoms: _272  and  _273
REMARK  111  A    between atoms: _273  and  _274
REMARK  112  A    between atoms: _277  and  _279
REMARK  113  A    between atoms: _279  and  _280
REMARK  114  A    between atoms: _279  and  _282
REMARK  115  A    between atoms: _282  and  _283
REMARK  116  A    between atoms: _283  and  _284
REMARK  117  A    between atoms: _289  and  _291
REMARK  118  A    between atoms: _291  and  _292
REMARK  119  A    between atoms: _291  and  _294
REMARK  120  A    between atoms: _294  and  _295
REMARK  121  A    between atoms: _297  and  _299
REMARK  122  A    between atoms: _299  and  _300
REMARK  123  A    between atoms: _299  and  _302
REMARK  124  A    between atoms: _302  and  _303
REMARK  125  A    between atoms: _309  and  _311
REMARK  126  A    between atoms: _311  and  _312
REMARK  127  A    between atoms: _311  and  _314
REMARK  128  A    between atoms: _314  and  _315
REMARK  129  A    between atoms: _315  and  _316
REMARK  130  A    between atoms: _316  and  _317
REMARK  131  A    between atoms: _326  and  _328
REMARK  132  A    between atoms: _328  and  _329
REMARK  133  A    between atoms: _328  and  _331
REMARK  134  A    between atoms: _334  and  _336
REMARK  135  A    between atoms: _336  and  _337
REMARK  136  A    between atoms: _336  and  _339
REMARK  137  A    between atoms: _339  and  _340
REMARK  138  A    between atoms: _343  and  _345
REMARK  139  A    between atoms: _345  and  _346
REMARK  140  A    between atoms: _345  and  _348
REMARK  141  A    between atoms: _348  and  _349
REMARK  142  A    between atoms: _352  and  _354
REMARK  143  A    between atoms: _354  and  _355
REMARK  144  A    between atoms: _354  and  _357
REMARK  145  A    between atoms: _357  and  _358
REMARK  146  A    between atoms: _358  and  _359
REMARK  147  A    between atoms: _359  and  _360
REMARK  148  A    between atoms: _369  and  _371
REMARK  149  A    between atoms: _371  and  _372
REMARK  150  A    between atoms: _371  and  _374
REMARK  151  A    between atoms: _374  and  _375
REMARK  152  A    between atoms: _378  and  _380
REMARK  153  A    between atoms: _380  and  _381
REMARK  154  A    between atoms: _380  and  _383
REMARK  155  A    between atoms: _383  and  _384
REMARK  156  A    between atoms: _387  and  _389
REMARK  157  A    between atoms: _389  and  _390
REMARK  158  A    between atoms: _389  and  _392
REMARK  159  A    between atoms: _392  and  _393
REMARK  160  A    between atoms: _398  and  _399
REMARK  161  A    between atoms: _401  and  _403
REMARK  162  A    between atoms: _403  and  _404
REMARK  163  A    between atoms: _403  and  _406
REMARK  164  A    between atoms: _406  and  _407
REMARK  165  A    between atoms: _412  and  _413
REMARK  166  A    between atoms: _415  and  _417
REMARK  167  A    between atoms: _417  and  _418
REMARK  168  A    between atoms: _417  and  _420
REMARK  169  A    between atoms: _420  and  _421
REMARK  170  A    between atoms: _424  and  _426
REMARK  171  A    between atoms: _426  and  _427
REMARK  172  A    between atoms: _426  and  _429
REMARK  173  A    between atoms: _429  and  _430
REMARK  174  A    between atoms: _430  and  _431
REMARK  175  A    between atoms: _436  and  _438
REMARK  176  A    between atoms: _438  and  _439
REMARK  177  A    between atoms: _438  and  _441
REMARK  178  A    between atoms: _444  and  _446
REMARK  179  A    between atoms: _446  and  _447
REMARK  180  A    between atoms: _446  and  _449
REMARK  181  A    between atoms: _449  and  _450
REMARK  182  A    between atoms: _453  and  _455
REMARK  183  A    between atoms: _455  and  _456
REMARK  184  A    between atoms: _455  and  _458
REMARK  185  A    between atoms: _458  and  _459
REMARK  186  A    between atoms: _461  and  _463
REMARK  187  A    between atoms: _463  and  _464
REMARK  188  A    between atoms: _466  and  _468
REMARK  189  A    between atoms: _468  and  _469
REMARK  190  A    between atoms: _468  and  _471
REMARK  191  A    between atoms: _471  and  _472
REMARK  192  A    between atoms: _472  and  _774
REMARK  193  A    between atoms: _473  and  _475
REMARK  194  A    between atoms: _475  and  _476
REMARK  195  A    between atoms: _475  and  _478
REMARK  196  A    between atoms: _478  and  _479
REMARK  197  A    between atoms: _484  and  _485
REMARK  198  A    between atoms: _487  and  _489
REMARK  199  A    between atoms: _489  and  _490
REMARK  200  A    between atoms: _489  and  _492
REMARK  201  A    between atoms: _492  and  _493
REMARK  202  A    between atoms: _493  and  _494
REMARK  203  A    between atoms: _499  and  _501
REMARK  204  A    between atoms: _501  and  _502
REMARK  205  A    between atoms: _501  and  _504
REMARK  206  A    between atoms: _504  and  _505
REMARK  207  A    between atoms: _505  and  _506
REMARK  208  A    between atoms: _511  and  _513
REMARK  209  A    between atoms: _513  and  _514
REMARK  210  A    between atoms: _513  and  _516
REMARK  211  A    between atoms: _516  and  _517
REMARK  212  A    between atoms: _522  and  _523
REMARK  213  A    between atoms: _525  and  _527
REMARK  214  A    between atoms: _527  and  _528
REMARK  215  A    between atoms: _531  and  _533
REMARK  216  A    between atoms: _533  and  _534
REMARK  217  A    between atoms: _533  and  _536
REMARK  218  A    between atoms: _536  and  _537
REMARK  219  A    between atoms: _542  and  _543
REMARK  220  A    between atoms: _545  and  _547
REMARK  221  A    between atoms: _547  and  _548
REMARK  222  A    between atoms: _547  and  _550
REMARK  223  A    between atoms: _550  and  _551
REMARK  224  A    between atoms: _556  and  _557
REMARK  225  A    between atoms: _559  and  _561
REMARK  226  A    between atoms: _561  and  _562
REMARK  227  A    between atoms: _561  and  _564
REMARK  228  A    between atoms: _564  and  _565
REMARK  229  A    between atoms: _568  and  _570
REMARK  230  A    between atoms: _570  and  _571
REMARK  231  A    between atoms: _574  and  _576
REMARK  232  A    between atoms: _576  and  _577
REMARK  233  A    between atoms: _580  and  _582
REMARK  234  A    between atoms: _582  and  _583
REMARK  235  A    between atoms: _582  and  _585
REMARK  236  A    between atoms: _585  and  _586
REMARK  237  A    between atoms: _589  and  _591
REMARK  238  A    between atoms: _591  and  _592
REMARK  239  A    between atoms: _591  and  _594
REMARK  240  A    between atoms: _594  and  _595
REMARK  241  A    between atoms: _598  and  _600
REMARK  242  A    between atoms: _600  and  _601
REMARK  243  A    between atoms: _600  and  _603
REMARK  244  A    between atoms: _603  and  _604
REMARK  245  A    between atoms: _607  and  _609
REMARK  246  A    between atoms: _609  and  _610
REMARK  247  A    between atoms: _609  and  _612
REMARK  248  A    between atoms: _612  and  _613
REMARK  249  A    between atoms: _613  and  _614
REMARK  250  A    between atoms: _614  and  _615
REMARK  251  A    between atoms: _615  and  _616
REMARK  252  A    between atoms: _620  and  _622
REMARK  253  A    between atoms: _622  and  _623
REMARK  254  A    between atoms: _622  and  _625
REMARK  255  A    between atoms: _625  and  _626
REMARK  256  A    between atoms: _631  and  _633
REMARK  257  A    between atoms: _633  and  _634
REMARK  258  A    between atoms: _633  and  _636
REMARK  259  A    between atoms: _636  and  _637
REMARK  260  A    between atoms: _637  and  _638
REMARK  261  A    between atoms: _638  and  _639
REMARK  262  A    between atoms: _639  and  _640
REMARK  263  A    between atoms: _644  and  _646
REMARK  264  A    between atoms: _646  and  _647
REMARK  265  A    between atoms: _646  and  _649
REMARK  266  A    between atoms: _649  and  _650
REMARK  267  A    between atoms: _660  and  _662
REMARK  268  A    between atoms: _662  and  _663
REMARK  269  A    between atoms: _666  and  _668
REMARK  270  A    between atoms: _668  and  _669
REMARK  271  A    between atoms: _671  and  _673
REMARK  272  A    between atoms: _673  and  _674
REMARK  273  A    between atoms: _673  and  _676
REMARK  274  A    between atoms: _676  and  _677
REMARK  275  A    between atoms: _677  and  _678
REMARK  276  A    between atoms: _681  and  _683
REMARK  277  A    between atoms: _683  and  _684
REMARK  278  A    between atoms: _687  and  _689
REMARK  279  A    between atoms: _689  and  _690
REMARK  280  A    between atoms: _689  and  _692
REMARK  281  A    between atoms: _692  and  _693
REMARK  282  A    between atoms: _693  and  _694
REMARK  283  A    between atoms: _694  and  _695
REMARK  284  A    between atoms: _704  and  _706
REMARK  285  A    between atoms: _706  and  _707
REMARK  286  A    between atoms: _706  and  _709
REMARK  287  A    between atoms: _709  and  _710
REMARK  288  A    between atoms: _713  and  _715
REMARK  289  A    between atoms: _715  and  _716
REMARK  290  A    between atoms: _715  and  _718
REMARK  291  A    between atoms: _718  and  _719
REMARK  292  A    between atoms: _719  and  _720
REMARK  293  A    between atoms: _720  and  _721
REMARK  294  A    between atoms: _730  and  _732
REMARK  295  A    between atoms: _732  and  _733
REMARK  296  A    between atoms: _736  and  _738
REMARK  297  A    between atoms: _738  and  _739
REMARK  298  A    between atoms: _738  and  _741
REMARK  299  A    between atoms: _741  and  _742
REMARK  300  A    between atoms: _747  and  _748
REMARK  301  A    between atoms: _750  and  _752
REMARK  302  A    between atoms: _752  and  _753
REMARK  303  A    between atoms: _752  and  _755
REMARK  304  A    between atoms: _755  and  _756
REMARK  305  A    between atoms: _759  and  _761
REMARK  306  A    between atoms: _761  and  _762
REMARK  307  A    between atoms: _761  and  _764
REMARK  308  A    between atoms: _764  and  _765
REMARK  309  A    between atoms: _768  and  _770
REMARK  310  A    between atoms: _770  and  _771
REMARK  311  A    between atoms: _770  and  _773
REMARK  312  A    between atoms: _773  and  _774
REMARK  313  A    between atoms: _775  and  _777
REMARK  314  A    between atoms: _777  and  _778
REMARK  315  A    between atoms: _777  and  _780
REMARK  316  A    between atoms: _783  and  _785
REMARK  317  A    between atoms: _785  and  _786
REMARK  318  A    between atoms: _785  and  _788
REMARK  319  A    between atoms: _788  and  _789
REMARK  320  A    between atoms: _789  and  _790
REMARK  321  A    between atoms: _793  and  _795
REMARK  322  A    between atoms: _795  and  _796
REMARK  323  A    between atoms: _795  and  _798
REMARK  324  A    between atoms: _798  and  _799
REMARK  325  A    between atoms: _809  and  _811
REMARK  326  A    between atoms: _811  and  _812
REMARK  327  A    between atoms: _811  and  _814
REMARK  328  A    between atoms: _814  and  _815
REMARK  329  A    between atoms: _818  and  _820
REMARK  330  A    between atoms: _820  and  _821
REMARK  331  A    between atoms: _820  and  _823
REMARK  332  A    between atoms: _823  and  _824
REMARK  333  A    between atoms: _829  and  _830
REMARK                            x       y       z     vdW  Elec       q    Type
REMARK                         _______ _______ _______ _____ _____    ______ ____
ROOT
ATOM      1  CG  TYR A   1      -8.643  -8.131  34.959  0.00  0.00    -0.020 A 
ATOM      2  CD2 TYR A   1      -8.627  -6.744  34.875  0.00  0.00    -0.001 A 
ATOM      3  CE2 TYR A   1      -9.758  -6.033  34.516  0.00  0.00    +0.036 A 
ATOM      4  CZ  TYR A   1     -10.911  -6.695  34.217  0.00  0.00    +0.134 A 
ATOM      5  CE1 TYR A   1     -10.965  -8.084  34.292  0.00  0.00    +0.036 A 
ATOM      6  CD1 TYR A   1      -9.832  -8.789  34.664  0.00  0.00    -0.001 A 
ENDROOT
BRANCH   4   7
ATOM      7  OH  TYR A   1     -12.021  -5.970  33.862  0.00  0.00    -0.506 OA
ATOM      8  HH  TYR A   1     -12.772  -6.588  33.676  0.00  0.00    +0.292 HD
ENDBRANCH   4   7
BRANCH   1   9
ATOM      9  CB  TYR A   1      -7.395  -8.899  35.361  0.00  0.00    +0.051 C 
BRANCH   9  10
ATOM     10  CA  TYR A   1      -7.656 -10.146  36.208  0.00  0.00    +0.137 C 
BRANCH  10  11
ATOM     11  N   TYR A   1      -8.221  -9.788  37.506  0.00  0.00    -0.239 NA
ATOM     12  H   TYR A   1      -8.284  -8.786  37.776  0.00  0.00    +0.142 HD
ENDBRANCH  10  11
BRANCH  10  13
ATOM     13  C   TYR A   1      -6.357 -10.909  36.413  0.00  0.00    +0.224 C 
ATOM     14  O   TYR A   1      -6.093 -11.902  35.736  0.00  0.00    -0.287 OA
ENDBRANCH  10  13
ENDBRANCH   9  10
ENDBRANCH   1   9
TORSDOF 5
REMARK  Name = ../refined-set-2016/3p9l/3p9l_pocket.pdb
REMARK  333 active torsions:
REMARK  status: ('A' for Active; 'I' for Inactive)
REMARK    1  A    between atoms: _1  and  _3
REMARK    2  A    between atoms: _3  and  _4
REMARK    3  A    between atoms: _3  and  _6
REMARK    4  A    between atoms: _6  and  _7
REMARK    5  A    between atoms: _10  and  _12
REMARK    6  A    between atoms: _12  and  _13
REMARK    7  A    between atoms: _12  and  _15
REMARK    8  A    between atoms: _15  and  _16
REMARK    9  A    between atoms: _16  and  _17
REMARK   10  A    between atoms: _17  and  _18
REMARK   11  A    between atoms: _27  and  _29
REMARK   12  A    between atoms: _29  and  _30
REMARK   13  A    between atoms: _29  and  _32
REMARK   14  A    between atoms: _32  and  _33
REMARK   15  A    between atoms: _38  and  _39
REMARK   16  A    between atoms: _41  and  _43
REMARK   17  A    between atoms: _43  and  _44
REMARK   18  A    between atoms: _43  and  _46
REMARK   19  A    between atoms: _46  and  _47
REMARK   20  A    between atoms: _53  and  _55
REMARK   21  A    between atoms: _55  and  _56
REMARK   22  A    between atoms: _55  and  _58
REMARK   23  A    between atoms: _61  and  _63
REMARK   24  A    between atoms: _63  and  _64
REMARK   25  A    between atoms: _63  and  _66
REMARK   26  A    between atoms: _66  and  _67
REMARK   27  A    between atoms: _70  and  _72
REMARK   28  A    between atoms: _72  and  _73
REMARK   29  A    between atoms: _72  and  _75
REMARK   30  A    between atoms: _75  and  _76
REMARK   31  A    between atoms: _81  and  _82
REMARK   32  A    between atoms: _84  and  _86
REMARK   33  A    between atoms: _86  and  _87
REMARK   34  A    between atoms: _86  and  _89
REMARK   35  A    between atoms: _89  and  _90
REMARK   36  A    between atoms: _90  and  _91
REMARK   37  A    between atoms: _93  and  _95
REMARK   38  A    between atoms: _95  and  _96
REMARK   39  A    between atoms: _95  and  _98
REMARK   40  A    between atoms: _98  and  _99
REMARK   41  A    between atoms: _99  and  _100
REMARK   42  A    between atoms: _103  and  _105
REMARK   43  A    between atoms: _105  and  _106
REMARK   44  A    between atoms: _105  and  _108
REMARK   45  A    between atoms: _111  and  _113
REMARK   46  A    between atoms: _113  and  _114
REMARK   47  A    between atoms: _116  and  _118
REMARK   48  A    between atoms: _118  and  _119
REMARK   49  A    between atoms: _118  and  _121
REMARK   50  A    between atoms: _124  and  _126
REMARK   51  A    between atoms: _126  and  _127
REMARK   52  A    between atoms: _126  and  _129
REMARK   53  A    between atoms: _129  and  _130
REMARK   54  A    between atoms: _136  and  _138
REMARK   55  A    between atoms: _138  and  _139
REMARK   56  A    between atoms: _138  and  _141
REMARK   57  A    between atoms: _144  and  _146
REMARK   58  A    between atoms: _146  and  _147
REMARK   59  A    between atoms: _146  and  _149
REMARK   60  A    between atoms: _149  and  _150
REMARK   61  A    between atoms: _156  and  _158
REMARK   62  A    between atoms: _158  and  _159
REMARK   63  A    between atoms: _158  and  _161
REMARK   64  A    between atoms: _161  and  _162
REMARK   65  A    between atoms: _167  and  _168
REMARK   66  A    between atoms: _170  and  _172
REMARK   67  A    between atoms: _172  and  _173
REMARK   68  A    between atoms: _172  and  _175
REMARK   69  A    between atoms: _175  and  _176
REMARK   70  A    between atoms: _176  and  _177
REMARK   71  A    between atoms: _179  and  _181
REMARK   72  A    between atoms: _181  and  _182
REMARK   73  A    between atoms: _181  and  _184
REMARK   74  A    between atoms: _184  and  _185
REMARK   75  A    between atoms: _190  and  _191
REMARK   76  A    between atoms: _193  and  _195
REMARK   77  A    between atoms: _195  and  _196
REMARK   78  A    between atoms: _195  and  _198
REMARK   79  A    between atoms: _198  and  _199
REMARK   80  A    between atoms: _199  and  _200
REMARK   81  A    between atoms: _200  and  _201
REMARK   82  A    between atoms: _210  and  _212
REMARK   83  A    between atoms: _212  and  _213
REMARK   84  A    between atoms: _212  and  _215
REMARK   85  A    between atoms: _215  and  _216
REMARK   86  A    between atoms: _216  and  _217
REMARK   87  A    between atoms: _220  and  _222
REMARK   88  A    between atoms: _222  and  _223
REMARK   89  A    between atoms: _222  and  _225
REMARK   90  A    between atoms: _225  and  _226
REMARK   91  A    between atoms: _226  and  _227
REMARK   92  A    between atoms: _232  and  _234
REMARK   93  A    between atoms: _234  and  _235
REMARK   94  A    between atoms: _234  and  _237
REMARK   95  A    between atoms: _237  and  _238
REMARK   96  A    between atoms: _238  and  _239
REMARK   97  A    between atoms: _239  and  _240
REMARK   98  A    between atoms: _240  and  _241
REMARK   99  A    between atoms: _245  and  _247
REMARK  100  A    between atoms: _247  and  _248
REMARK  101  A    between atoms: _251  and  _253
REMARK  102  A    between atoms: _253  and  _254
REMARK  103  A    between atoms: _256  and  _258
REMARK  104  A    between atoms: _258  and  _259
REMARK  105  A    between atoms: _258  and  _261
REMARK  106  A    between atoms: _261  and  _262
REMARK  107  A    between atoms: _267  and  _269
REMARK  108  A    between atoms: _269  and  _270
REMARK  109  A    between atoms: _269  and  _272
REMARK  110  A    between atoms: _272  and  _273
REMARK  111  A    between atoms: _273  and  _274
REMARK  112  A    between atoms: _277  and  _279
REMARK  113  A    between atoms: _279  and  _280
REMARK  114  A    between atoms: _279  and  _282
REMARK  115  A    between atoms: _282  and  _283
REMARK  116  A    between atoms: _283  and  _284
REMARK  117  A    between atoms: _289  and  _291
REMARK  118  A    between atoms: _291  and  _292
REMARK  119  A    between atoms: _291  and  _294
REMARK  120  A    between atoms: _294  and  _295
REMARK  121  A    between atoms: _297  and  _299
REMARK  122  A    between atoms: _299  and  _300
REMARK  123  A    between atoms: _299  and  _302
REMARK  124  A    between atoms: _302  and  _303
REMARK  125  A    between atoms: _309  and  _311
REMARK  126  A    between atoms: _311  and  _312
REMARK  127  A    between atoms: _311  and  _314
REMARK  128  A    between atoms: _314  and  _315
REMARK  129  A    between atoms: _315  and  _316
REMARK  130  A    between atoms: _316  and  _317
REMARK  131  A    between atoms: _326  and  _328
REMARK  132  A    between atoms: _328  and  _329
REMARK  133  A    between atoms: _328  and  _331
REMARK  134  A    between atoms: _334  and  _336
REMARK  135  A    between atoms: _336  and  _337
REMARK  136  A    between atoms: _336  and  _339
REMARK  137  A    between atoms: _339  and  _340
REMARK  138  A    between atoms: _343  and  _345
REMARK  139  A    between atoms: _345  and  _346
REMARK  140  A    between atoms: _345  and  _348
REMARK  141  A    between atoms: _348  and  _349
REMARK  142  A    between atoms: _352  and  _354
REMARK  143  A    between atoms: _354  and  _355
REMARK  144  A    between atoms: _354  and  _357
REMARK  145  A    between atoms: _357  and  _358
REMARK  146  A    between atoms: _358  and  _359
REMARK  147  A    between atoms: _359  and  _360
REMARK  148  A    between atoms: _369  and  _371
REMARK  149  A    between atoms: _371  and  _372
REMARK  150  A    between atoms: _371  and  _374
REMARK  151  A    between atoms: _374  and  _375
REMARK  152  A    between atoms: _378  and  _380
REMARK  153  A    between atoms: _380  and  _381
REMARK  154  A    between atoms: _380  and  _383
REMARK  155  A    between atoms: _383  and  _384
REMARK  156  A    between atoms: _387  and  _389
REMARK  157  A    between atoms: _389  and  _390
REMARK  158  A    between atoms: _389  and  _392
REMARK  159  A    between atoms: _392  and  _393
REMARK  160  A    between atoms: _398  and  _399
REMARK  161  A    between atoms: _401  and  _403
REMARK  162  A    between atoms: _403  and  _404
REMARK  163  A    between atoms: _403  and  _406
REMARK  164  A    between atoms: _406  and  _407
REMARK  165  A    between atoms: _412  and  _413
REMARK  166  A    between atoms: _415  and  _417
REMARK  167  A    between atoms: _417  and  _418
REMARK  168  A    between atoms: _417  and  _420
REMARK  169  A    between atoms: _420  and  _421
REMARK  170  A    between atoms: _424  and  _426
REMARK  171  A    between atoms: _426  and  _427
REMARK  172  A    between atoms: _426  and  _429
REMARK  173  A    between atoms: _429  and  _430
REMARK  174  A    between atoms: _430  and  _431
REMARK  175  A    between atoms: _436  and  _438
REMARK  176  A    between atoms: _438  and  _439
REMARK  177  A    between atoms: _438  and  _441
REMARK  178  A    between atoms: _444  and  _446
REMARK  179  A    between atoms: _446  and  _447
REMARK  180  A    between atoms: _446  and  _449
REMARK  181  A    between atoms: _449  and  _450
REMARK  182  A    between atoms: _453  and  _455
REMARK  183  A    between atoms: _455  and  _456
REMARK  184  A    between atoms: _455  and  _458
REMARK  185  A    between atoms: _458  and  _459
REMARK  186  A    between atoms: _461  and  _463
REMARK  187  A    between atoms: _463  and  _464
REMARK  188  A    between atoms: _466  and  _468
REMARK  189  A    between atoms: _468  and  _469
REMARK  190  A    between atoms: _468  and  _471
REMARK  191  A    between atoms: _471  and  _472
REMARK  192  A    between atoms: _472  and  _774
REMARK  193  A    between atoms: _473  and  _475
REMARK  194  A    between atoms: _475  and  _476
REMARK  195  A    between atoms: _475  and  _478
REMARK  196  A    between atoms: _478  and  _479
REMARK  197  A    between atoms: _484  and  _485
REMARK  198  A    between atoms: _487  and  _489
REMARK  199  A    between atoms: _489  and  _490
REMARK  200  A    between atoms: _489  and  _492
REMARK  201  A    between atoms: _492  and  _493
REMARK  202  A    between atoms: _493  and  _494
REMARK  203  A    between atoms: _499  and  _501
REMARK  204  A    between atoms: _501  and  _502
REMARK  205  A    between atoms: _501  and  _504
REMARK  206  A    between atoms: _504  and  _505
REMARK  207  A    between atoms: _505  and  _506
REMARK  208  A    between atoms: _511  and  _513
REMARK  209  A    between atoms: _513  and  _514
REMARK  210  A    between atoms: _513  and  _516
REMARK  211  A    between atoms: _516  and  _517
REMARK  212  A    between atoms: _522  and  _523
REMARK  213  A    between atoms: _525  and  _527
REMARK  214  A    between atoms: _527  and  _528
REMARK  215  A    between atoms: _531  and  _533
REMARK  216  A    between atoms: _533  and  _534
REMARK  217  A    between atoms: _533  and  _536
REMARK  218  A    between atoms: _536  and  _537
REMARK  219  A    between atoms: _542  and  _543
REMARK  220  A    between atoms: _545  and  _547
REMARK  221  A    between atoms: _547  and  _548
REMARK  222  A    between atoms: _547  and  _550
REMARK  223  A    between atoms: _550  and  _551
REMARK  224  A    between atoms: _556  and  _557
REMARK  225  A    between atoms: _559  and  _561
REMARK  226  A    between atoms: _561  and  _562
REMARK  227  A    between atoms: _561  and  _564
REMARK  228  A    between atoms: _564  and  _565
REMARK  229  A    between atoms: _568  and  _570
REMARK  230  A    between atoms: _570  and  _571
REMARK  231  A    between atoms: _574  and  _576
REMARK  232  A    between atoms: _576  and  _577
REMARK  233  A    between atoms: _580  and  _582
REMARK  234  A    between atoms: _582  and  _583
REMARK  235  A    between atoms: _582  and  _585
REMARK  236  A    between atoms: _585  and  _586
REMARK  237  A    between atoms: _589  and  _591
REMARK  238  A    between atoms: _591  and  _592
REMARK  239  A    between atoms: _591  and  _594
REMARK  240  A    between atoms: _594  and  _595
REMARK  241  A    between atoms: _598  and  _600
REMARK  242  A    between atoms: _600  and  _601
REMARK  243  A    between atoms: _600  and  _603
REMARK  244  A    between atoms: _603  and  _604
REMARK  245  A    between atoms: _607  and  _609
REMARK  246  A    between atoms: _609  and  _610
REMARK  247  A    between atoms: _609  and  _612
REMARK  248  A    between atoms: _612  and  _613
REMARK  249  A    between atoms: _613  and  _614
REMARK  250  A    between atoms: _614  and  _615
REMARK  251  A    between atoms: _615  and  _616
REMARK  252  A    between atoms: _620  and  _622
REMARK  253  A    between atoms: _622  and  _623
REMARK  254  A    between atoms: _622  and  _625
REMARK  255  A    between atoms: _625  and  _626
REMARK  256  A    between atoms: _631  and  _633
REMARK  257  A    between atoms: _633  and  _634
REMARK  258  A    between atoms: _633  and  _636
REMARK  259  A    between atoms: _636  and  _637
REMARK  260  A    between atoms: _637  and  _638
REMARK  261  A    between atoms: _638  and  _639
REMARK  262  A    between atoms: _639  and  _640
REMARK  263  A    between atoms: _644  and  _646
REMARK  264  A    between atoms: _646  and  _647
REMARK  265  A    between atoms: _646  and  _649
REMARK  266  A    between atoms: _649  and  _650
REMARK  267  A    between atoms: _660  and  _662
REMARK  268  A    between atoms: _662  and  _663
REMARK  269  A    between atoms: _666  and  _668
REMARK  270  A    between atoms: _668  and  _669
REMARK  271  A    between atoms: _671  and  _673
REMARK  272  A    between atoms: _673  and  _674
REMARK  273  A    between atoms: _673  and  _676
REMARK  274  A    between atoms: _676  and  _677
REMARK  275  A    between atoms: _677  and  _678
REMARK  276  A    between atoms: _681  and  _683
REMARK  277  A    between atoms: _683  and  _684
REMARK  278  A    between atoms: _687  and  _689
REMARK  279  A    between atoms: _689  and  _690
REMARK  280  A    between atoms: _689  and  _692
REMARK  281  A    between atoms: _692  and  _693
REMARK  282  A    between atoms: _693  and  _694
REMARK  283  A    between atoms: _694  and  _695
REMARK  284  A    between atoms: _704  and  _706
REMARK  285  A    between atoms: _706  and  _707
REMARK  286  A    between atoms: _706  and  _709
REMARK  287  A    between atoms: _709  and  _710
REMARK  288  A    between atoms: _713  and  _715
REMARK  289  A    between atoms: _715  and  _716
REMARK  290  A    between atoms: _715  and  _718
REMARK  291  A    between atoms: _718  and  _719
REMARK  292  A    between atoms: _719  and  _720
REMARK  293  A    between atoms: _720  and  _721
REMARK  294  A    between atoms: _730  and  _732
REMARK  295  A    between atoms: _732  and  _733
REMARK  296  A    between atoms: _736  and  _738
REMARK  297  A    between atoms: _738  and  _739
REMARK  298  A    between atoms: _738  and  _741
REMARK  299  A    between atoms: _741  and  _742
REMARK  300  A    between atoms: _747  and  _748
REMARK  301  A    between atoms: _750  and  _752
REMARK  302  A    between atoms: _752  and  _753
REMARK  303  A    between atoms: _752  and  _755
REMARK  304  A    between atoms: _755  and  _756
REMARK  305  A    between atoms: _759  and  _761
REMARK  306  A    between atoms: _761  and  _762
REMARK  307  A    between atoms: _761  and  _764
REMARK  308  A    between atoms: _764  and  _765
REMARK  309  A    between atoms: _768  and  _770
REMARK  310  A    between atoms: _770  and  _771
REMARK  311  A    between atoms: _770  and  _773
REMARK  312  A    between atoms: _773  and  _774
REMARK  313  A    between atoms: _775  and  _777
REMARK  314  A    between atoms: _777  and  _778
REMARK  315  A    between atoms: _777  and  _780
REMARK  316  A    between atoms: _783  and  _785
REMARK  317  A    between atoms: _785  and  _786
REMARK  318  A    between atoms: _785  and  _788
REMARK  319  A    between atoms: _788  and  _789
REMARK  320  A    between atoms: _789  and  _790
REMARK  321  A    between atoms: _793  and  _795
REMARK  322  A    between atoms: _795  and  _796
REMARK  323  A    between atoms: _795  and  _798
REMARK  324  A    between atoms: _798  and  _799
REMARK  325  A    between atoms: _809  and  _811
REMARK  326  A    between atoms: _811  and  _812
REMARK  327  A    between atoms: _811  and  _814
REMARK  328  A    between atoms: _814  and  _815
REMARK  329  A    between atoms: _818  and  _820
REMARK  330  A    between atoms: _820  and  _821
REMARK  331  A    between atoms: _820  and  _823
REMARK  332  A    between atoms: _823  and  _824
REMARK  333  A    between atoms: _829  and  _830
REMARK                            x       y       z     vdW  Elec       q    Type
REMARK                         _______ _______ _______ _____ _____    ______ ____
ROOT
ATOM      1  O   HOH     1     -24.304   7.085  26.983  0.00  0.00    +0.000 OA
ENDROOT
TORSDOF 0
REMARK  Name = ../refined-set-2016/3p9l/3p9l_pocket.pdb
REMARK  333 active torsions:
REMARK  status: ('A' for Active; 'I' for Inactive)
REMARK    1  A    between atoms: _1  and  _3
REMARK    2  A    between atoms: _3  and  _4
REMARK    3  A    between atoms: _3  and  _6
REMARK    4  A    between atoms: _6  and  _7
REMARK    5  A    between atoms: _10  and  _12
REMARK    6  A    between atoms: _12  and  _13
REMARK    7  A    between atoms: _12  and  _15
REMARK    8  A    between atoms: _15  and  _16
REMARK    9  A    between atoms: _16  and  _17
REMARK   10  A    between atoms: _17  and  _18
REMARK   11  A    between atoms: _27  and  _29
REMARK   12  A    between atoms: _29  and  _30
REMARK   13  A    between atoms: _29  and  _32
REMARK   14  A    between atoms: _32  and  _33
REMARK   15  A    between atoms: _38  and  _39
REMARK   16  A    between atoms: _41  and  _43
REMARK   17  A    between atoms: _43  and  _44
REMARK   18  A    between atoms: _43  and  _46
REMARK   19  A    between atoms: _46  and  _47
REMARK   20  A    between atoms: _53  and  _55
REMARK   21  A    between atoms: _55  and  _56
REMARK   22  A    between atoms: _55  and  _58
REMARK   23  A    between atoms: _61  and  _63
REMARK   24  A    between atoms: _63  and  _64
REMARK   25  A    between atoms: _63  and  _66
REMARK   26  A    between atoms: _66  and  _67
REMARK   27  A    between atoms: _70  and  _72
REMARK   28  A    between atoms: _72  and  _73
REMARK   29  A    between atoms: _72  and  _75
REMARK   30  A    between atoms: _75  and  _76
REMARK   31  A    between atoms: _81  and  _82
REMARK   32  A    between atoms: _84  and  _86
REMARK   33  A    between atoms: _86  and  _87
REMARK   34  A    between atoms: _86  and  _89
REMARK   35  A    between atoms: _89  and  _90
REMARK   36  A    between atoms: _90  and  _91
REMARK   37  A    between atoms: _93  and  _95
REMARK   38  A    between atoms: _95  and  _96
REMARK   39  A    between atoms: _95  and  _98
REMARK   40  A    between atoms: _98  and  _99
REMARK   41  A    between atoms: _99  and  _100
REMARK   42  A    between atoms: _103  and  _105
REMARK   43  A    between atoms: _105  and  _106
REMARK   44  A    between atoms: _105  and  _108
REMARK   45  A    between atoms: _111  and  _113
REMARK   46  A    between atoms: _113  and  _114
REMARK   47  A    between atoms: _116  and  _118
REMARK   48  A    between atoms: _118  and  _119
REMARK   49  A    between atoms: _118  and  _121
REMARK   50  A    between atoms: _124  and  _126
REMARK   51  A    between atoms: _126  and  _127
REMARK   52  A    between atoms: _126  and  _129
REMARK   53  A    between atoms: _129  and  _130
REMARK   54  A    between atoms: _136  and  _138
REMARK   55  A    between atoms: _138  and  _139
REMARK   56  A    between atoms: _138  and  _141
REMARK   57  A    between atoms: _144  and  _146
REMARK   58  A    between atoms: _146  and  _147
REMARK   59  A    between atoms: _146  and  _149
REMARK   60  A    between atoms: _149  and  _150
REMARK   61  A    between atoms: _156  and  _158
REMARK   62  A    between atoms: _158  and  _159
REMARK   63  A    between atoms: _158  and  _161
REMARK   64  A    between atoms: _161  and  _162
REMARK   65  A    between atoms: _167  and  _168
REMARK   66  A    between atoms: _170  and  _172
REMARK   67  A    between atoms: _172  and  _173
REMARK   68  A    between atoms: _172  and  _175
REMARK   69  A    between atoms: _175  and  _176
REMARK   70  A    between atoms: _176  and  _177
REMARK   71  A    between atoms: _179  and  _181
REMARK   72  A    between atoms: _181  and  _182
REMARK   73  A    between atoms: _181  and  _184
REMARK   74  A    between atoms: _184  and  _185
REMARK   75  A    between atoms: _190  and  _191
REMARK   76  A    between atoms: _193  and  _195
REMARK   77  A    between atoms: _195  and  _196
REMARK   78  A    between atoms: _195  and  _198
REMARK   79  A    between atoms: _198  and  _199
REMARK   80  A    between atoms: _199  and  _200
REMARK   81  A    between atoms: _200  and  _201
REMARK   82  A    between atoms: _210  and  _212
REMARK   83  A    between atoms: _212  and  _213
REMARK   84  A    between atoms: _212  and  _215
REMARK   85  A    between atoms: _215  and  _216
REMARK   86  A    between atoms: _216  and  _217
REMARK   87  A    between atoms: _220  and  _222
REMARK   88  A    between atoms: _222  and  _223
REMARK   89  A    between atoms: _222  and  _225
REMARK   90  A    between atoms: _225  and  _226
REMARK   91  A    between atoms: _226  and  _227
REMARK   92  A    between atoms: _232  and  _234
REMARK   93  A    between atoms: _234  and  _235
REMARK   94  A    between atoms: _234  and  _237
REMARK   95  A    between atoms: _237  and  _238
REMARK   96  A    between atoms: _238  and  _239
REMARK   97  A    between atoms: _239  and  _240
REMARK   98  A    between atoms: _240  and  _241
REMARK   99  A    between atoms: _245  and  _247
REMARK  100  A    between atoms: _247  and  _248
REMARK  101  A    between atoms: _251  and  _253
REMARK  102  A    between atoms: _253  and  _254
REMARK  103  A    between atoms: _256  and  _258
REMARK  104  A    between atoms: _258  and  _259
REMARK  105  A    between atoms: _258  and  _261
REMARK  106  A    between atoms: _261  and  _262
REMARK  107  A    between atoms: _267  and  _269
REMARK  108  A    between atoms: _269  and  _270
REMARK  109  A    between atoms: _269  and  _272
REMARK  110  A    between atoms: _272  and  _273
REMARK  111  A    between atoms: _273  and  _274
REMARK  112  A    between atoms: _277  and  _279
REMARK  113  A    between atoms: _279  and  _280
REMARK  114  A    between atoms: _279  and  _282
REMARK  115  A    between atoms: _282  and  _283
REMARK  116  A    between atoms: _283  and  _284
REMARK  117  A    between atoms: _289  and  _291
REMARK  118  A    between atoms: _291  and  _292
REMARK  119  A    between atoms: _291  and  _294
REMARK  120  A    between atoms: _294  and  _295
REMARK  121  A    between atoms: _297  and  _299
REMARK  122  A    between atoms: _299  and  _300
REMARK  123  A    between atoms: _299  and  _302
REMARK  124  A    between atoms: _302  and  _303
REMARK  125  A    between atoms: _309  and  _311
REMARK  126  A    between atoms: _311  and  _312
REMARK  127  A    between atoms: _311  and  _314
REMARK  128  A    between atoms: _314  and  _315
REMARK  129  A    between atoms: _315  and  _316
REMARK  130  A    between atoms: _316  and  _317
REMARK  131  A    between atoms: _326  and  _328
REMARK  132  A    between atoms: _328  and  _329
REMARK  133  A    between atoms: _328  and  _331
REMARK  134  A    between atoms: _334  and  _336
REMARK  135  A    between atoms: _336  and  _337
REMARK  136  A    between atoms: _336  and  _339
REMARK  137  A    between atoms: _339  and  _340
REMARK  138  A    between atoms: _343  and  _345
REMARK  139  A    between atoms: _345  and  _346
REMARK  140  A    between atoms: _345  and  _348
REMARK  141  A    between atoms: _348  and  _349
REMARK  142  A    between atoms: _352  and  _354
REMARK  143  A    between atoms: _354  and  _355
REMARK  144  A    between atoms: _354  and  _357
REMARK  145  A    between atoms: _357  and  _358
REMARK  146  A    between atoms: _358  and  _359
REMARK  147  A    between atoms: _359  and  _360
REMARK  148  A    between atoms: _369  and  _371
REMARK  149  A    between atoms: _371  and  _372
REMARK  150  A    between atoms: _371  and  _374
REMARK  151  A    between atoms: _374  and  _375
REMARK  152  A    between atoms: _378  and  _380
REMARK  153  A    between atoms: _380  and  _381
REMARK  154  A    between atoms: _380  and  _383
REMARK  155  A    between atoms: _383  and  _384
REMARK  156  A    between atoms: _387  and  _389
REMARK  157  A    between atoms: _389  and  _390
REMARK  158  A    between atoms: _389  and  _392
REMARK  159  A    between atoms: _392  and  _393
REMARK  160  A    between atoms: _398  and  _399
REMARK  161  A    between atoms: _401  and  _403
REMARK  162  A    between atoms: _403  and  _404
REMARK  163  A    between atoms: _403  and  _406
REMARK  164  A    between atoms: _406  and  _407
REMARK  165  A    between atoms: _412  and  _413
REMARK  166  A    between atoms: _415  and  _417
REMARK  167  A    between atoms: _417  and  _418
REMARK  168  A    between atoms: _417  and  _420
REMARK  169  A    between atoms: _420  and  _421
REMARK  170  A    between atoms: _424  and  _426
REMARK  171  A    between atoms: _426  and  _427
REMARK  172  A    between atoms: _426  and  _429
REMARK  173  A    between atoms: _429  and  _430
REMARK  174  A    between atoms: _430  and  _431
REMARK  175  A    between atoms: _436  and  _438
REMARK  176  A    between atoms: _438  and  _439
REMARK  177  A    between atoms: _438  and  _441
REMARK  178  A    between atoms: _444  and  _446
REMARK  179  A    between atoms: _446  and  _447
REMARK  180  A    between atoms: _446  and  _449
REMARK  181  A    between atoms: _449  and  _450
REMARK  182  A    between atoms: _453  and  _455
REMARK  183  A    between atoms: _455  and  _456
REMARK  184  A    between atoms: _455  and  _458
REMARK  185  A    between atoms: _458  and  _459
REMARK  186  A    between atoms: _461  and  _463
REMARK  187  A    between atoms: _463  and  _464
REMARK  188  A    between atoms: _466  and  _468
REMARK  189  A    between atoms: _468  and  _469
REMARK  190  A    between atoms: _468  and  _471
REMARK  191  A    between atoms: _471  and  _472
REMARK  192  A    between atoms: _472  and  _774
REMARK  193  A    between atoms: _473  and  _475
REMARK  194  A    between atoms: _475  and  _476
REMARK  195  A    between atoms: _475  and  _478
REMARK  196  A    between atoms: _478  and  _479
REMARK  197  A    between atoms: _484  and  _485
REMARK  198  A    between atoms: _487  and  _489
REMARK  199  A    between atoms: _489  and  _490
REMARK  200  A    between atoms: _489  and  _492
REMARK  201  A    between atoms: _492  and  _493
REMARK  202  A    between atoms: _493  and  _494
REMARK  203  A    between atoms: _499  and  _501
REMARK  204  A    between atoms: _501  and  _502
REMARK  205  A    between atoms: _501  and  _504
REMARK  206  A    between atoms: _504  and  _505
REMARK  207  A    between atoms: _505  and  _506
REMARK  208  A    between atoms: _511  and  _513
REMARK  209  A    between atoms: _513  and  _514
REMARK  210  A    between atoms: _513  and  _516
REMARK  211  A    between atoms: _516  and  _517
REMARK  212  A    between atoms: _522  and  _523
REMARK  213  A    between atoms: _525  and  _527
REMARK  214  A    between atoms: _527  and  _528
REMARK  215  A    between atoms: _531  and  _533
REMARK  216  A    between atoms: _533  and  _534
REMARK  217  A    between atoms: _533  and  _536
REMARK  218  A    between atoms: _536  and  _537
REMARK  219  A    between atoms: _542  and  _543
REMARK  220  A    between atoms: _545  and  _547
REMARK  221  A    between atoms: _547  and  _548
REMARK  222  A    between atoms: _547  and  _550
REMARK  223  A    between atoms: _550  and  _551
REMARK  224  A    between atoms: _556  and  _557
REMARK  225  A    between atoms: _559  and  _561
REMARK  226  A    between atoms: _561  and  _562
REMARK  227  A    between atoms: _561  and  _564
REMARK  228  A    between atoms: _564  and  _565
REMARK  229  A    between atoms: _568  and  _570
REMARK  230  A    between atoms: _570  and  _571
REMARK  231  A    between atoms: _574  and  _576
REMARK  232  A    between atoms: _576  and  _577
REMARK  233  A    between atoms: _580  and  _582
REMARK  234  A    between atoms: _582  and  _583
REMARK  235  A    between atoms: _582  and  _585
REMARK  236  A    between atoms: _585  and  _586
REMARK  237  A    between atoms: _589  and  _591
REMARK  238  A    between atoms: _591  and  _592
REMARK  239  A    between atoms: _591  and  _594
REMARK  240  A    between atoms: _594  and  _595
REMARK  241  A    between atoms: _598  and  _600
REMARK  242  A    between atoms: _600  and  _601
REMARK  243  A    between atoms: _600  and  _603
REMARK  244  A    between atoms: _603  and  _604
REMARK  245  A    between atoms: _607  and  _609
REMARK  246  A    between atoms: _609  and  _610
REMARK  247  A    between atoms: _609  and  _612
REMARK  248  A    between atoms: _612  and  _613
REMARK  249  A    between atoms: _613  and  _614
REMARK  250  A    between atoms: _614  and  _615
REMARK  251  A    between atoms: _615  and  _616
REMARK  252  A    between atoms: _620  and  _622
REMARK  253  A    between atoms: _622  and  _623
REMARK  254  A    between atoms: _622  and  _625
REMARK  255  A    between atoms: _625  and  _626
REMARK  256  A    between atoms: _631  and  _633
REMARK  257  A    between atoms: _633  and  _634
REMARK  258  A    between atoms: _633  and  _636
REMARK  259  A    between atoms: _636  and  _637
REMARK  260  A    between atoms: _637  and  _638
REMARK  261  A    between atoms: _638  and  _639
REMARK  262  A    between atoms: _639  and  _640
REMARK  263  A    between atoms: _644  and  _646
REMARK  264  A    between atoms: _646  and  _647
REMARK  265  A    between atoms: _646  and  _649
REMARK  266  A    between atoms: _649  and  _650
REMARK  267  A    between atoms: _660  and  _662
REMARK  268  A    between atoms: _662  and  _663
REMARK  269  A    between atoms: _666  and  _668
REMARK  270  A    between atoms: _668  and  _669
REMARK  271  A    between atoms: _671  and  _673
REMARK  272  A    between atoms: _673  and  _674
REMARK  273  A    between atoms: _673  and  _676
REMARK  274  A    between atoms: _676  and  _677
REMARK  275  A    between atoms: _677  and  _678
REMARK  276  A    between atoms: _681  and  _683
REMARK  277  A    between atoms: _683  and  _684
REMARK  278  A    between atoms: _687  and  _689
REMARK  279  A    between atoms: _689  and  _690
REMARK  280  A    between atoms: _689  and  _692
REMARK  281  A    between atoms: _692  and  _693
REMARK  282  A    between atoms: _693  and  _694
REMARK  283  A    between atoms: _694  and  _695
REMARK  284  A    between atoms: _704  and  _706
REMARK  285  A    between atoms: _706  and  _707
REMARK  286  A    between atoms: _706  and  _709
REMARK  287  A    between atoms: _709  and  _710
REMARK  288  A    between atoms: _713  and  _715
REMARK  289  A    between atoms: _715  and  _716
REMARK  290  A    between atoms: _715  and  _718
REMARK  291  A    between atoms: _718  and  _719
REMARK  292  A    between atoms: _719  and  _720
REMARK  293  A    between atoms: _720  and  _721
REMARK  294  A    between atoms: _730  and  _732
REMARK  295  A    between atoms: _732  and  _733
REMARK  296  A    between atoms: _736  and  _738
REMARK  297  A    between atoms: _738  and  _739
REMARK  298  A    between atoms: _738  and  _741
REMARK  299  A    between atoms: _741  and  _742
REMARK  300  A    between atoms: _747  and  _748
REMARK  301  A    between atoms: _750  and  _752
REMARK  302  A    between atoms: _752  and  _753
REMARK  303  A    between atoms: _752  and  _755
REMARK  304  A    between atoms: _755  and  _756
REMARK  305  A    between atoms: _759  and  _761
REMARK  306  A    between atoms: _761  and  _762
REMARK  307  A    between atoms: _761  and  _764
REMARK  308  A    between atoms: _764  and  _765
REMARK  309  A    between atoms: _768  and  _770
REMARK  310  A    between atoms: _770  and  _771
REMARK  311  A    between atoms: _770  and  _773
REMARK  312  A    between atoms: _773  and  _774
REMARK  313  A    between atoms: _775  and  _777
REMARK  314  A    between atoms: _777  and  _778
REMARK  315  A    between atoms: _777  and  _780
REMARK  316  A    between atoms: _783  and  _785
REMARK  317  A    between atoms: _785  and  _786
REMARK  318  A    between atoms: _785  and  _788
REMARK  319  A    between atoms: _788  and  _789
REMARK  320  A    between atoms: _789  and  _790
REMARK  321  A    between atoms: _793  and  _795
REMARK  322  A    between atoms: _795  and  _796
REMARK  323  A    between atoms: _795  and  _798
REMARK  324  A    between atoms: _798  and  _799
REMARK  325  A    between atoms: _809  and  _811
REMARK  326  A    between atoms: _811  and  _812
REMARK  327  A    between atoms: _811  and  _814
REMARK  328  A    between atoms: _814  and  _815
REMARK  329  A    between atoms: _818  and  _820
REMARK  330  A    between atoms: _820  and  _821
REMARK  331  A    between atoms: _820  and  _823
REMARK  332  A    between atoms: _823  and  _824
REMARK  333  A    between atoms: _829  and  _830
REMARK                            x       y       z     vdW  Elec       q    Type
REMARK                         _______ _______ _______ _____ _____    ______ ____
ROOT
ATOM      1  O   HOH     1     -18.728  -9.420  35.732  0.00  0.00    +0.000 OA
ENDROOT
TORSDOF 0
REMARK  Name = ../refined-set-2016/3p9l/3p9l_pocket.pdb
REMARK  333 active torsions:
REMARK  status: ('A' for Active; 'I' for Inactive)
REMARK    1  A    between atoms: _1  and  _3
REMARK    2  A    between atoms: _3  and  _4
REMARK    3  A    between atoms: _3  and  _6
REMARK    4  A    between atoms: _6  and  _7
REMARK    5  A    between atoms: _10  and  _12
REMARK    6  A    between atoms: _12  and  _13
REMARK    7  A    between atoms: _12  and  _15
REMARK    8  A    between atoms: _15  and  _16
REMARK    9  A    between atoms: _16  and  _17
REMARK   10  A    between atoms: _17  and  _18
REMARK   11  A    between atoms: _27  and  _29
REMARK   12  A    between atoms: _29  and  _30
REMARK   13  A    between atoms: _29  and  _32
REMARK   14  A    between atoms: _32  and  _33
REMARK   15  A    between atoms: _38  and  _39
REMARK   16  A    between atoms: _41  and  _43
REMARK   17  A    between atoms: _43  and  _44
REMARK   18  A    between atoms: _43  and  _46
REMARK   19  A    between atoms: _46  and  _47
REMARK   20  A    between atoms: _53  and  _55
REMARK   21  A    between atoms: _55  and  _56
REMARK   22  A    between atoms: _55  and  _58
REMARK   23  A    between atoms: _61  and  _63
REMARK   24  A    between atoms: _63  and  _64
REMARK   25  A    between atoms: _63  and  _66
REMARK   26  A    between atoms: _66  and  _67
REMARK   27  A    between atoms: _70  and  _72
REMARK   28  A    between atoms: _72  and  _73
REMARK   29  A    between atoms: _72  and  _75
REMARK   30  A    between atoms: _75  and  _76
REMARK   31  A    between atoms: _81  and  _82
REMARK   32  A    between atoms: _84  and  _86
REMARK   33  A    between atoms: _86  and  _87
REMARK   34  A    between atoms: _86  and  _89
REMARK   35  A    between atoms: _89  and  _90
REMARK   36  A    between atoms: _90  and  _91
REMARK   37  A    between atoms: _93  and  _95
REMARK   38  A    between atoms: _95  and  _96
REMARK   39  A    between atoms: _95  and  _98
REMARK   40  A    between atoms: _98  and  _99
REMARK   41  A    between atoms: _99  and  _100
REMARK   42  A    between atoms: _103  and  _105
REMARK   43  A    between atoms: _105  and  _106
REMARK   44  A    between atoms: _105  and  _108
REMARK   45  A    between atoms: _111  and  _113
REMARK   46  A    between atoms: _113  and  _114
REMARK   47  A    between atoms: _116  and  _118
REMARK   48  A    between atoms: _118  and  _119
REMARK   49  A    between atoms: _118  and  _121
REMARK   50  A    between atoms: _124  and  _126
REMARK   51  A    between atoms: _126  and  _127
REMARK   52  A    between atoms: _126  and  _129
REMARK   53  A    between atoms: _129  and  _130
REMARK   54  A    between atoms: _136  and  _138
REMARK   55  A    between atoms: _138  and  _139
REMARK   56  A    between atoms: _138  and  _141
REMARK   57  A    between atoms: _144  and  _146
REMARK   58  A    between atoms: _146  and  _147
REMARK   59  A    between atoms: _146  and  _149
REMARK   60  A    between atoms: _149  and  _150
REMARK   61  A    between atoms: _156  and  _158
REMARK   62  A    between atoms: _158  and  _159
REMARK   63  A    between atoms: _158  and  _161
REMARK   64  A    between atoms: _161  and  _162
REMARK   65  A    between atoms: _167  and  _168
REMARK   66  A    between atoms: _170  and  _172
REMARK   67  A    between atoms: _172  and  _173
REMARK   68  A    between atoms: _172  and  _175
REMARK   69  A    between atoms: _175  and  _176
REMARK   70  A    between atoms: _176  and  _177
REMARK   71  A    between atoms: _179  and  _181
REMARK   72  A    between atoms: _181  and  _182
REMARK   73  A    between atoms: _181  and  _184
REMARK   74  A    between atoms: _184  and  _185
REMARK   75  A    between atoms: _190  and  _191
REMARK   76  A    between atoms: _193  and  _195
REMARK   77  A    between atoms: _195  and  _196
REMARK   78  A    between atoms: _195  and  _198
REMARK   79  A    between atoms: _198  and  _199
REMARK   80  A    between atoms: _199  and  _200
REMARK   81  A    between atoms: _200  and  _201
REMARK   82  A    between atoms: _210  and  _212
REMARK   83  A    between atoms: _212  and  _213
REMARK   84  A    between atoms: _212  and  _215
REMARK   85  A    between atoms: _215  and  _216
REMARK   86  A    between atoms: _216  and  _217
REMARK   87  A    between atoms: _220  and  _222
REMARK   88  A    between atoms: _222  and  _223
REMARK   89  A    between atoms: _222  and  _225
REMARK   90  A    between atoms: _225  and  _226
REMARK   91  A    between atoms: _226  and  _227
REMARK   92  A    between atoms: _232  and  _234
REMARK   93  A    between atoms: _234  and  _235
REMARK   94  A    between atoms: _234  and  _237
REMARK   95  A    between atoms: _237  and  _238
REMARK   96  A    between atoms: _238  and  _239
REMARK   97  A    between atoms: _239  and  _240
REMARK   98  A    between atoms: _240  and  _241
REMARK   99  A    between atoms: _245  and  _247
REMARK  100  A    between atoms: _247  and  _248
REMARK  101  A    between atoms: _251  and  _253
REMARK  102  A    between atoms: _253  and  _254
REMARK  103  A    between atoms: _256  and  _258
REMARK  104  A    between atoms: _258  and  _259
REMARK  105  A    between atoms: _258  and  _261
REMARK  106  A    between atoms: _261  and  _262
REMARK  107  A    between atoms: _267  and  _269
REMARK  108  A    between atoms: _269  and  _270
REMARK  109  A    between atoms: _269  and  _272
REMARK  110  A    between atoms: _272  and  _273
REMARK  111  A    between atoms: _273  and  _274
REMARK  112  A    between atoms: _277  and  _279
REMARK  113  A    between atoms: _279  and  _280
REMARK  114  A    between atoms: _279  and  _282
REMARK  115  A    between atoms: _282  and  _283
REMARK  116  A    between atoms: _283  and  _284
REMARK  117  A    between atoms: _289  and  _291
REMARK  118  A    between atoms: _291  and  _292
REMARK  119  A    between atoms: _291  and  _294
REMARK  120  A    between atoms: _294  and  _295
REMARK  121  A    between atoms: _297  and  _299
REMARK  122  A    between atoms: _299  and  _300
REMARK  123  A    between atoms: _299  and  _302
REMARK  124  A    between atoms: _302  and  _303
REMARK  125  A    between atoms: _309  and  _311
REMARK  126  A    between atoms: _311  and  _312
REMARK  127  A    between atoms: _311  and  _314
REMARK  128  A    between atoms: _314  and  _315
REMARK  129  A    between atoms: _315  and  _316
REMARK  130  A    between atoms: _316  and  _317
REMARK  131  A    between atoms: _326  and  _328
REMARK  132  A    between atoms: _328  and  _329
REMARK  133  A    between atoms: _328  and  _331
REMARK  134  A    between atoms: _334  and  _336
REMARK  135  A    between atoms: _336  and  _337
REMARK  136  A    between atoms: _336  and  _339
REMARK  137  A    between atoms: _339  and  _340
REMARK  138  A    between atoms: _343  and  _345
REMARK  139  A    between atoms: _345  and  _346
REMARK  140  A    between atoms: _345  and  _348
REMARK  141  A    between atoms: _348  and  _349
REMARK  142  A    between atoms: _352  and  _354
REMARK  143  A    between atoms: _354  and  _355
REMARK  144  A    between atoms: _354  and  _357
REMARK  145  A    between atoms: _357  and  _358
REMARK  146  A    between atoms: _358  and  _359
REMARK  147  A    between atoms: _359  and  _360
REMARK  148  A    between atoms: _369  and  _371
REMARK  149  A    between atoms: _371  and  _372
REMARK  150  A    between atoms: _371  and  _374
REMARK  151  A    between atoms: _374  and  _375
REMARK  152  A    between atoms: _378  and  _380
REMARK  153  A    between atoms: _380  and  _381
REMARK  154  A    between atoms: _380  and  _383
REMARK  155  A    between atoms: _383  and  _384
REMARK  156  A    between atoms: _387  and  _389
REMARK  157  A    between atoms: _389  and  _390
REMARK  158  A    between atoms: _389  and  _392
REMARK  159  A    between atoms: _392  and  _393
REMARK  160  A    between atoms: _398  and  _399
REMARK  161  A    between atoms: _401  and  _403
REMARK  162  A    between atoms: _403  and  _404
REMARK  163  A    between atoms: _403  and  _406
REMARK  164  A    between atoms: _406  and  _407
REMARK  165  A    between atoms: _412  and  _413
REMARK  166  A    between atoms: _415  and  _417
REMARK  167  A    between atoms: _417  and  _418
REMARK  168  A    between atoms: _417  and  _420
REMARK  169  A    between atoms: _420  and  _421
REMARK  170  A    between atoms: _424  and  _426
REMARK  171  A    between atoms: _426  and  _427
REMARK  172  A    between atoms: _426  and  _429
REMARK  173  A    between atoms: _429  and  _430
REMARK  174  A    between atoms: _430  and  _431
REMARK  175  A    between atoms: _436  and  _438
REMARK  176  A    between atoms: _438  and  _439
REMARK  177  A    between atoms: _438  and  _441
REMARK  178  A    between atoms: _444  and  _446
REMARK  179  A    between atoms: _446  and  _447
REMARK  180  A    between atoms: _446  and  _449
REMARK  181  A    between atoms: _449  and  _450
REMARK  182  A    between atoms: _453  and  _455
REMARK  183  A    between atoms: _455  and  _456
REMARK  184  A    between atoms: _455  and  _458
REMARK  185  A    between atoms: _458  and  _459
REMARK  186  A    between atoms: _461  and  _463
REMARK  187  A    between atoms: _463  and  _464
REMARK  188  A    between atoms: _466  and  _468
REMARK  189  A    between atoms: _468  and  _469
REMARK  190  A    between atoms: _468  and  _471
REMARK  191  A    between atoms: _471  and  _472
REMARK  192  A    between atoms: _472  and  _774
REMARK  193  A    between atoms: _473  and  _475
REMARK  194  A    between atoms: _475  and  _476
REMARK  195  A    between atoms: _475  and  _478
REMARK  196  A    between atoms: _478  and  _479
REMARK  197  A    between atoms: _484  and  _485
REMARK  198  A    between atoms: _487  and  _489
REMARK  199  A    between atoms: _489  and  _490
REMARK  200  A    between atoms: _489  and  _492
REMARK  201  A    between atoms: _492  and  _493
REMARK  202  A    between atoms: _493  and  _494
REMARK  203  A    between atoms: _499  and  _501
REMARK  204  A    between atoms: _501  and  _502
REMARK  205  A    between atoms: _501  and  _504
REMARK  206  A    between atoms: _504  and  _505
REMARK  207  A    between atoms: _505  and  _506
REMARK  208  A    between atoms: _511  and  _513
REMARK  209  A    between atoms: _513  and  _514
REMARK  210  A    between atoms: _513  and  _516
REMARK  211  A    between atoms: _516  and  _517
REMARK  212  A    between atoms: _522  and  _523
REMARK  213  A    between atoms: _525  and  _527
REMARK  214  A    between atoms: _527  and  _528
REMARK  215  A    between atoms: _531  and  _533
REMARK  216  A    between atoms: _533  and  _534
REMARK  217  A    between atoms: _533  and  _536
REMARK  218  A    between atoms: _536  and  _537
REMARK  219  A    between atoms: _542  and  _543
REMARK  220  A    between atoms: _545  and  _547
REMARK  221  A    between atoms: _547  and  _548
REMARK  222  A    between atoms: _547  and  _550
REMARK  223  A    between atoms: _550  and  _551
REMARK  224  A    between atoms: _556  and  _557
REMARK  225  A    between atoms: _559  and  _561
REMARK  226  A    between atoms: _561  and  _562
REMARK  227  A    between atoms: _561  and  _564
REMARK  228  A    between atoms: _564  and  _565
REMARK  229  A    between atoms: _568  and  _570
REMARK  230  A    between atoms: _570  and  _571
REMARK  231  A    between atoms: _574  and  _576
REMARK  232  A    between atoms: _576  and  _577
REMARK  233  A    between atoms: _580  and  _582
REMARK  234  A    between atoms: _582  and  _583
REMARK  235  A    between atoms: _582  and  _585
REMARK  236  A    between atoms: _585  and  _586
REMARK  237  A    between atoms: _589  and  _591
REMARK  238  A    between atoms: _591  and  _592
REMARK  239  A    between atoms: _591  and  _594
REMARK  240  A    between atoms: _594  and  _595
REMARK  241  A    between atoms: _598  and  _600
REMARK  242  A    between atoms: _600  and  _601
REMARK  243  A    between atoms: _600  and  _603
REMARK  244  A    between atoms: _603  and  _604
REMARK  245  A    between atoms: _607  and  _609
REMARK  246  A    between atoms: _609  and  _610
REMARK  247  A    between atoms: _609  and  _612
REMARK  248  A    between atoms: _612  and  _613
REMARK  249  A    between atoms: _613  and  _614
REMARK  250  A    between atoms: _614  and  _615
REMARK  251  A    between atoms: _615  and  _616
REMARK  252  A    between atoms: _620  and  _622
REMARK  253  A    between atoms: _622  and  _623
REMARK  254  A    between atoms: _622  and  _625
REMARK  255  A    between atoms: _625  and  _626
REMARK  256  A    between atoms: _631  and  _633
REMARK  257  A    between atoms: _633  and  _634
REMARK  258  A    between atoms: _633  and  _636
REMARK  259  A    between atoms: _636  and  _637
REMARK  260  A    between atoms: _637  and  _638
REMARK  261  A    between atoms: _638  and  _639
REMARK  262  A    between atoms: _639  and  _640
REMARK  263  A    between atoms: _644  and  _646
REMARK  264  A    between atoms: _646  and  _647
REMARK  265  A    between atoms: _646  and  _649
REMARK  266  A    between atoms: _649  and  _650
REMARK  267  A    between atoms: _660  and  _662
REMARK  268  A    between atoms: _662  and  _663
REMARK  269  A    between atoms: _666  and  _668
REMARK  270  A    between atoms: _668  and  _669
REMARK  271  A    between atoms: _671  and  _673
REMARK  272  A    between atoms: _673  and  _674
REMARK  273  A    between atoms: _673  and  _676
REMARK  274  A    between atoms: _676  and  _677
REMARK  275  A    between atoms: _677  and  _678
REMARK  276  A    between atoms: _681  and  _683
REMARK  277  A    between atoms: _683  and  _684
REMARK  278  A    between atoms: _687  and  _689
REMARK  279  A    between atoms: _689  and  _690
REMARK  280  A    between atoms: _689  and  _692
REMARK  281  A    between atoms: _692  and  _693
REMARK  282  A    between atoms: _693  and  _694
REMARK  283  A    between atoms: _694  and  _695
REMARK  284  A    between atoms: _704  and  _706
REMARK  285  A    between atoms: _706  and  _707
REMARK  286  A    between atoms: _706  and  _709
REMARK  287  A    between atoms: _709  and  _710
REMARK  288  A    between atoms: _713  and  _715
REMARK  289  A    between atoms: _715  and  _716
REMARK  290  A    between atoms: _715  and  _718
REMARK  291  A    between atoms: _718  and  _719
REMARK  292  A    between atoms: _719  and  _720
REMARK  293  A    between atoms: _720  and  _721
REMARK  294  A    between atoms: _730  and  _732
REMARK  295  A    between atoms: _732  and  _733
REMARK  296  A    between atoms: _736  and  _738
REMARK  297  A    between atoms: _738  and  _739
REMARK  298  A    between atoms: _738  and  _741
REMARK  299  A    between atoms: _741  and  _742
REMARK  300  A    between atoms: _747  and  _748
REMARK  301  A    between atoms: _750  and  _752
REMARK  302  A    between atoms: _752  and  _753
REMARK  303  A    between atoms: _752  and  _755
REMARK  304  A    between atoms: _755  and  _756
REMARK  305  A    between atoms: _759  and  _761
REMARK  306  A    between atoms: _761  and  _762
REMARK  307  A    between atoms: _761  and  _764
REMARK  308  A    between atoms: _764  and  _765
REMARK  309  A    between atoms: _768  and  _770
REMARK  310  A    between atoms: _770  and  _771
REMARK  311  A    between atoms: _770  and  _773
REMARK  312  A    between atoms: _773  and  _774
REMARK  313  A    between atoms: _775  and  _777
REMARK  314  A    between atoms: _777  and  _778
REMARK  315  A    between atoms: _777  and  _780
REMARK  316  A    between atoms: _783  and  _785
REMARK  317  A    between atoms: _785  and  _786
REMARK  318  A    between atoms: _785  and  _788
REMARK  319  A    between atoms: _788  and  _789
REMARK  320  A    between atoms: _789  and  _790
REMARK  321  A    between atoms: _793  and  _795
REMARK  322  A    between atoms: _795  and  _796
REMARK  323  A    between atoms: _795  and  _798
REMARK  324  A    between atoms: _798  and  _799
REMARK  325  A    between atoms: _809  and  _811
REMARK  326  A    between atoms: _811  and  _812
REMARK  327  A    between atoms: _811  and  _814
REMARK  328  A    between atoms: _814  and  _815
REMARK  329  A    between atoms: _818  and  _820
REMARK  330  A    between atoms: _820  and  _821
REMARK  331  A    between atoms: _820  and  _823
REMARK  332  A    between atoms: _823  and  _824
REMARK  333  A    between atoms: _829  and  _830
REMARK                            x       y       z     vdW  Elec       q    Type
REMARK                         _______ _______ _______ _____ _____    ______ ____
ROOT
ATOM      1  O   HOH     1     -19.207  -8.065  38.051  0.00  0.00    +0.000 OA
ENDROOT
TORSDOF 0
REMARK  Name = ../refined-set-2016/3p9l/3p9l_pocket.pdb
REMARK  333 active torsions:
REMARK  status: ('A' for Active; 'I' for Inactive)
REMARK    1  A    between atoms: _1  and  _3
REMARK    2  A    between atoms: _3  and  _4
REMARK    3  A    between atoms: _3  and  _6
REMARK    4  A    between atoms: _6  and  _7
REMARK    5  A    between atoms: _10  and  _12
REMARK    6  A    between atoms: _12  and  _13
REMARK    7  A    between atoms: _12  and  _15
REMARK    8  A    between atoms: _15  and  _16
REMARK    9  A    between atoms: _16  and  _17
REMARK   10  A    between atoms: _17  and  _18
REMARK   11  A    between atoms: _27  and  _29
REMARK   12  A    between atoms: _29  and  _30
REMARK   13  A    between atoms: _29  and  _32
REMARK   14  A    between atoms: _32  and  _33
REMARK   15  A    between atoms: _38  and  _39
REMARK   16  A    between atoms: _41  and  _43
REMARK   17  A    between atoms: _43  and  _44
REMARK   18  A    between atoms: _43  and  _46
REMARK   19  A    between atoms: _46  and  _47
REMARK   20  A    between atoms: _53  and  _55
REMARK   21  A    between atoms: _55  and  _56
REMARK   22  A    between atoms: _55  and  _58
REMARK   23  A    between atoms: _61  and  _63
REMARK   24  A    between atoms: _63  and  _64
REMARK   25  A    between atoms: _63  and  _66
REMARK   26  A    between atoms: _66  and  _67
REMARK   27  A    between atoms: _70  and  _72
REMARK   28  A    between atoms: _72  and  _73
REMARK   29  A    between atoms: _72  and  _75
REMARK   30  A    between atoms: _75  and  _76
REMARK   31  A    between atoms: _81  and  _82
REMARK   32  A    between atoms: _84  and  _86
REMARK   33  A    between atoms: _86  and  _87
REMARK   34  A    between atoms: _86  and  _89
REMARK   35  A    between atoms: _89  and  _90
REMARK   36  A    between atoms: _90  and  _91
REMARK   37  A    between atoms: _93  and  _95
REMARK   38  A    between atoms: _95  and  _96
REMARK   39  A    between atoms: _95  and  _98
REMARK   40  A    between atoms: _98  and  _99
REMARK   41  A    between atoms: _99  and  _100
REMARK   42  A    between atoms: _103  and  _105
REMARK   43  A    between atoms: _105  and  _106
REMARK   44  A    between atoms: _105  and  _108
REMARK   45  A    between atoms: _111  and  _113
REMARK   46  A    between atoms: _113  and  _114
REMARK   47  A    between atoms: _116  and  _118
REMARK   48  A    between atoms: _118  and  _119
REMARK   49  A    between atoms: _118  and  _121
REMARK   50  A    between atoms: _124  and  _126
REMARK   51  A    between atoms: _126  and  _127
REMARK   52  A    between atoms: _126  and  _129
REMARK   53  A    between atoms: _129  and  _130
REMARK   54  A    between atoms: _136  and  _138
REMARK   55  A    between atoms: _138  and  _139
REMARK   56  A    between atoms: _138  and  _141
REMARK   57  A    between atoms: _144  and  _146
REMARK   58  A    between atoms: _146  and  _147
REMARK   59  A    between atoms: _146  and  _149
REMARK   60  A    between atoms: _149  and  _150
REMARK   61  A    between atoms: _156  and  _158
REMARK   62  A    between atoms: _158  and  _159
REMARK   63  A    between atoms: _158  and  _161
REMARK   64  A    between atoms: _161  and  _162
REMARK   65  A    between atoms: _167  and  _168
REMARK   66  A    between atoms: _170  and  _172
REMARK   67  A    between atoms: _172  and  _173
REMARK   68  A    between atoms: _172  and  _175
REMARK   69  A    between atoms: _175  and  _176
REMARK   70  A    between atoms: _176  and  _177
REMARK   71  A    between atoms: _179  and  _181
REMARK   72  A    between atoms: _181  and  _182
REMARK   73  A    between atoms: _181  and  _184
REMARK   74  A    between atoms: _184  and  _185
REMARK   75  A    between atoms: _190  and  _191
REMARK   76  A    between atoms: _193  and  _195
REMARK   77  A    between atoms: _195  and  _196
REMARK   78  A    between atoms: _195  and  _198
REMARK   79  A    between atoms: _198  and  _199
REMARK   80  A    between atoms: _199  and  _200
REMARK   81  A    between atoms: _200  and  _201
REMARK   82  A    between atoms: _210  and  _212
REMARK   83  A    between atoms: _212  and  _213
REMARK   84  A    between atoms: _212  and  _215
REMARK   85  A    between atoms: _215  and  _216
REMARK   86  A    between atoms: _216  and  _217
REMARK   87  A    between atoms: _220  and  _222
REMARK   88  A    between atoms: _222  and  _223
REMARK   89  A    between atoms: _222  and  _225
REMARK   90  A    between atoms: _225  and  _226
REMARK   91  A    between atoms: _226  and  _227
REMARK   92  A    between atoms: _232  and  _234
REMARK   93  A    between atoms: _234  and  _235
REMARK   94  A    between atoms: _234  and  _237
REMARK   95  A    between atoms: _237  and  _238
REMARK   96  A    between atoms: _238  and  _239
REMARK   97  A    between atoms: _239  and  _240
REMARK   98  A    between atoms: _240  and  _241
REMARK   99  A    between atoms: _245  and  _247
REMARK  100  A    between atoms: _247  and  _248
REMARK  101  A    between atoms: _251  and  _253
REMARK  102  A    between atoms: _253  and  _254
REMARK  103  A    between atoms: _256  and  _258
REMARK  104  A    between atoms: _258  and  _259
REMARK  105  A    between atoms: _258  and  _261
REMARK  106  A    between atoms: _261  and  _262
REMARK  107  A    between atoms: _267  and  _269
REMARK  108  A    between atoms: _269  and  _270
REMARK  109  A    between atoms: _269  and  _272
REMARK  110  A    between atoms: _272  and  _273
REMARK  111  A    between atoms: _273  and  _274
REMARK  112  A    between atoms: _277  and  _279
REMARK  113  A    between atoms: _279  and  _280
REMARK  114  A    between atoms: _279  and  _282
REMARK  115  A    between atoms: _282  and  _283
REMARK  116  A    between atoms: _283  and  _284
REMARK  117  A    between atoms: _289  and  _291
REMARK  118  A    between atoms: _291  and  _292
REMARK  119  A    between atoms: _291  and  _294
REMARK  120  A    between atoms: _294  and  _295
REMARK  121  A    between atoms: _297  and  _299
REMARK  122  A    between atoms: _299  and  _300
REMARK  123  A    between atoms: _299  and  _302
REMARK  124  A    between atoms: _302  and  _303
REMARK  125  A    between atoms: _309  and  _311
REMARK  126  A    between atoms: _311  and  _312
REMARK  127  A    between atoms: _311  and  _314
REMARK  128  A    between atoms: _314  and  _315
REMARK  129  A    between atoms: _315  and  _316
REMARK  130  A    between atoms: _316  and  _317
REMARK  131  A    between atoms: _326  and  _328
REMARK  132  A    between atoms: _328  and  _329
REMARK  133  A    between atoms: _328  and  _331
REMARK  134  A    between atoms: _334  and  _336
REMARK  135  A    between atoms: _336  and  _337
REMARK  136  A    between atoms: _336  and  _339
REMARK  137  A    between atoms: _339  and  _340
REMARK  138  A    between atoms: _343  and  _345
REMARK  139  A    between atoms: _345  and  _346
REMARK  140  A    between atoms: _345  and  _348
REMARK  141  A    between atoms: _348  and  _349
REMARK  142  A    between atoms: _352  and  _354
REMARK  143  A    between atoms: _354  and  _355
REMARK  144  A    between atoms: _354  and  _357
REMARK  145  A    between atoms: _357  and  _358
REMARK  146  A    between atoms: _358  and  _359
REMARK  147  A    between atoms: _359  and  _360
REMARK  148  A    between atoms: _369  and  _371
REMARK  149  A    between atoms: _371  and  _372
REMARK  150  A    between atoms: _371  and  _374
REMARK  151  A    between atoms: _374  and  _375
REMARK  152  A    between atoms: _378  and  _380
REMARK  153  A    between atoms: _380  and  _381
REMARK  154  A    between atoms: _380  and  _383
REMARK  155  A    between atoms: _383  and  _384
REMARK  156  A    between atoms: _387  and  _389
REMARK  157  A    between atoms: _389  and  _390
REMARK  158  A    between atoms: _389  and  _392
REMARK  159  A    between atoms: _392  and  _393
REMARK  160  A    between atoms: _398  and  _399
REMARK  161  A    between atoms: _401  and  _403
REMARK  162  A    between atoms: _403  and  _404
REMARK  163  A    between atoms: _403  and  _406
REMARK  164  A    between atoms: _406  and  _407
REMARK  165  A    between atoms: _412  and  _413
REMARK  166  A    between atoms: _415  and  _417
REMARK  167  A    between atoms: _417  and  _418
REMARK  168  A    between atoms: _417  and  _420
REMARK  169  A    between atoms: _420  and  _421
REMARK  170  A    between atoms: _424  and  _426
REMARK  171  A    between atoms: _426  and  _427
REMARK  172  A    between atoms: _426  and  _429
REMARK  173  A    between atoms: _429  and  _430
REMARK  174  A    between atoms: _430  and  _431
REMARK  175  A    between atoms: _436  and  _438
REMARK  176  A    between atoms: _438  and  _439
REMARK  177  A    between atoms: _438  and  _441
REMARK  178  A    between atoms: _444  and  _446
REMARK  179  A    between atoms: _446  and  _447
REMARK  180  A    between atoms: _446  and  _449
REMARK  181  A    between atoms: _449  and  _450
REMARK  182  A    between atoms: _453  and  _455
REMARK  183  A    between atoms: _455  and  _456
REMARK  184  A    between atoms: _455  and  _458
REMARK  185  A    between atoms: _458  and  _459
REMARK  186  A    between atoms: _461  and  _463
REMARK  187  A    between atoms: _463  and  _464
REMARK  188  A    between atoms: _466  and  _468
REMARK  189  A    between atoms: _468  and  _469
REMARK  190  A    between atoms: _468  and  _471
REMARK  191  A    between atoms: _471  and  _472
REMARK  192  A    between atoms: _472  and  _774
REMARK  193  A    between atoms: _473  and  _475
REMARK  194  A    between atoms: _475  and  _476
REMARK  195  A    between atoms: _475  and  _478
REMARK  196  A    between atoms: _478  and  _479
REMARK  197  A    between atoms: _484  and  _485
REMARK  198  A    between atoms: _487  and  _489
REMARK  199  A    between atoms: _489  and  _490
REMARK  200  A    between atoms: _489  and  _492
REMARK  201  A    between atoms: _492  and  _493
REMARK  202  A    between atoms: _493  and  _494
REMARK  203  A    between atoms: _499  and  _501
REMARK  204  A    between atoms: _501  and  _502
REMARK  205  A    between atoms: _501  and  _504
REMARK  206  A    between atoms: _504  and  _505
REMARK  207  A    between atoms: _505  and  _506
REMARK  208  A    between atoms: _511  and  _513
REMARK  209  A    between atoms: _513  and  _514
REMARK  210  A    between atoms: _513  and  _516
REMARK  211  A    between atoms: _516  and  _517
REMARK  212  A    between atoms: _522  and  _523
REMARK  213  A    between atoms: _525  and  _527
REMARK  214  A    between atoms: _527  and  _528
REMARK  215  A    between atoms: _531  and  _533
REMARK  216  A    between atoms: _533  and  _534
REMARK  217  A    between atoms: _533  and  _536
REMARK  218  A    between atoms: _536  and  _537
REMARK  219  A    between atoms: _542  and  _543
REMARK  220  A    between atoms: _545  and  _547
REMARK  221  A    between atoms: _547  and  _548
REMARK  222  A    between atoms: _547  and  _550
REMARK  223  A    between atoms: _550  and  _551
REMARK  224  A    between atoms: _556  and  _557
REMARK  225  A    between atoms: _559  and  _561
REMARK  226  A    between atoms: _561  and  _562
REMARK  227  A    between atoms: _561  and  _564
REMARK  228  A    between atoms: _564  and  _565
REMARK  229  A    between atoms: _568  and  _570
REMARK  230  A    between atoms: _570  and  _571
REMARK  231  A    between atoms: _574  and  _576
REMARK  232  A    between atoms: _576  and  _577
REMARK  233  A    between atoms: _580  and  _582
REMARK  234  A    between atoms: _582  and  _583
REMARK  235  A    between atoms: _582  and  _585
REMARK  236  A    between atoms: _585  and  _586
REMARK  237  A    between atoms: _589  and  _591
REMARK  238  A    between atoms: _591  and  _592
REMARK  239  A    between atoms: _591  and  _594
REMARK  240  A    between atoms: _594  and  _595
REMARK  241  A    between atoms: _598  and  _600
REMARK  242  A    between atoms: _600  and  _601
REMARK  243  A    between atoms: _600  and  _603
REMARK  244  A    between atoms: _603  and  _604
REMARK  245  A    between atoms: _607  and  _609
REMARK  246  A    between atoms: _609  and  _610
REMARK  247  A    between atoms: _609  and  _612
REMARK  248  A    between atoms: _612  and  _613
REMARK  249  A    between atoms: _613  and  _614
REMARK  250  A    between atoms: _614  and  _615
REMARK  251  A    between atoms: _615  and  _616
REMARK  252  A    between atoms: _620  and  _622
REMARK  253  A    between atoms: _622  and  _623
REMARK  254  A    between atoms: _622  and  _625
REMARK  255  A    between atoms: _625  and  _626
REMARK  256  A    between atoms: _631  and  _633
REMARK  257  A    between atoms: _633  and  _634
REMARK  258  A    between atoms: _633  and  _636
REMARK  259  A    between atoms: _636  and  _637
REMARK  260  A    between atoms: _637  and  _638
REMARK  261  A    between atoms: _638  and  _639
REMARK  262  A    between atoms: _639  and  _640
REMARK  263  A    between atoms: _644  and  _646
REMARK  264  A    between atoms: _646  and  _647
REMARK  265  A    between atoms: _646  and  _649
REMARK  266  A    between atoms: _649  and  _650
REMARK  267  A    between atoms: _660  and  _662
REMARK  268  A    between atoms: _662  and  _663
REMARK  269  A    between atoms: _666  and  _668
REMARK  270  A    between atoms: _668  and  _669
REMARK  271  A    between atoms: _671  and  _673
REMARK  272  A    between atoms: _673  and  _674
REMARK  273  A    between atoms: _673  and  _676
REMARK  274  A    between atoms: _676  and  _677
REMARK  275  A    between atoms: _677  and  _678
REMARK  276  A    between atoms: _681  and  _683
REMARK  277  A    between atoms: _683  and  _684
REMARK  278  A    between atoms: _687  and  _689
REMARK  279  A    between atoms: _689  and  _690
REMARK  280  A    between atoms: _689  and  _692
REMARK  281  A    between atoms: _692  and  _693
REMARK  282  A    between atoms: _693  and  _694
REMARK  283  A    between atoms: _694  and  _695
REMARK  284  A    between atoms: _704  and  _706
REMARK  285  A    between atoms: _706  and  _707
REMARK  286  A    between atoms: _706  and  _709
REMARK  287  A    between atoms: _709  and  _710
REMARK  288  A    between atoms: _713  and  _715
REMARK  289  A    between atoms: _715  and  _716
REMARK  290  A    between atoms: _715  and  _718
REMARK  291  A    between atoms: _718  and  _719
REMARK  292  A    between atoms: _719  and  _720
REMARK  293  A    between atoms: _720  and  _721
REMARK  294  A    between atoms: _730  and  _732
REMARK  295  A    between atoms: _732  and  _733
REMARK  296  A    between atoms: _736  and  _738
REMARK  297  A    between atoms: _738  and  _739
REMARK  298  A    between atoms: _738  and  _741
REMARK  299  A    between atoms: _741  and  _742
REMARK  300  A    between atoms: _747  and  _748
REMARK  301  A    between atoms: _750  and  _752
REMARK  302  A    between atoms: _752  and  _753
REMARK  303  A    between atoms: _752  and  _755
REMARK  304  A    between atoms: _755  and  _756
REMARK  305  A    between atoms: _759  and  _761
REMARK  306  A    between atoms: _761  and  _762
REMARK  307  A    between atoms: _761  and  _764
REMARK  308  A    between atoms: _764  and  _765
REMARK  309  A    between atoms: _768  and  _770
REMARK  310  A    between atoms: _770  and  _771
REMARK  311  A    between atoms: _770  and  _773
REMARK  312  A    between atoms: _773  and  _774
REMARK  313  A    between atoms: _775  and  _777
REMARK  314  A    between atoms: _777  and  _778
REMARK  315  A    between atoms: _777  and  _780
REMARK  316  A    between atoms: _783  and  _785
REMARK  317  A    between atoms: _785  and  _786
REMARK  318  A    between atoms: _785  and  _788
REMARK  319  A    between atoms: _788  and  _789
REMARK  320  A    between atoms: _789  and  _790
REMARK  321  A    between atoms: _793  and  _795
REMARK  322  A    between atoms: _795  and  _796
REMARK  323  A    between atoms: _795  and  _798
REMARK  324  A    between atoms: _798  and  _799
REMARK  325  A    between atoms: _809  and  _811
REMARK  326  A    between atoms: _811  and  _812
REMARK  327  A    between atoms: _811  and  _814
REMARK  328  A    between atoms: _814  and  _815
REMARK  329  A    between atoms: _818  and  _820
REMARK  330  A    between atoms: _820  and  _821
REMARK  331  A    between atoms: _820  and  _823
REMARK  332  A    between atoms: _823  and  _824
REMARK  333  A    between atoms: _829  and  _830
REMARK                            x       y       z     vdW  Elec       q    Type
REMARK                         _______ _______ _______ _____ _____    ______ ____
ROOT
ATOM      1  O   HOH     1     -18.643   5.800  38.599  0.00  0.00    +0.000 OA
ENDROOT
TORSDOF 0
REMARK  Name = ../refined-set-2016/3p9l/3p9l_pocket.pdb
REMARK  333 active torsions:
REMARK  status: ('A' for Active; 'I' for Inactive)
REMARK    1  A    between atoms: _1  and  _3
REMARK    2  A    between atoms: _3  and  _4
REMARK    3  A    between atoms: _3  and  _6
REMARK    4  A    between atoms: _6  and  _7
REMARK    5  A    between atoms: _10  and  _12
REMARK    6  A    between atoms: _12  and  _13
REMARK    7  A    between atoms: _12  and  _15
REMARK    8  A    between atoms: _15  and  _16
REMARK    9  A    between atoms: _16  and  _17
REMARK   10  A    between atoms: _17  and  _18
REMARK   11  A    between atoms: _27  and  _29
REMARK   12  A    between atoms: _29  and  _30
REMARK   13  A    between atoms: _29  and  _32
REMARK   14  A    between atoms: _32  and  _33
REMARK   15  A    between atoms: _38  and  _39
REMARK   16  A    between atoms: _41  and  _43
REMARK   17  A    between atoms: _43  and  _44
REMARK   18  A    between atoms: _43  and  _46
REMARK   19  A    between atoms: _46  and  _47
REMARK   20  A    between atoms: _53  and  _55
REMARK   21  A    between atoms: _55  and  _56
REMARK   22  A    between atoms: _55  and  _58
REMARK   23  A    between atoms: _61  and  _63
REMARK   24  A    between atoms: _63  and  _64
REMARK   25  A    between atoms: _63  and  _66
REMARK   26  A    between atoms: _66  and  _67
REMARK   27  A    between atoms: _70  and  _72
REMARK   28  A    between atoms: _72  and  _73
REMARK   29  A    between atoms: _72  and  _75
REMARK   30  A    between atoms: _75  and  _76
REMARK   31  A    between atoms: _81  and  _82
REMARK   32  A    between atoms: _84  and  _86
REMARK   33  A    between atoms: _86  and  _87
REMARK   34  A    between atoms: _86  and  _89
REMARK   35  A    between atoms: _89  and  _90
REMARK   36  A    between atoms: _90  and  _91
REMARK   37  A    between atoms: _93  and  _95
REMARK   38  A    between atoms: _95  and  _96
REMARK   39  A    between atoms: _95  and  _98
REMARK   40  A    between atoms: _98  and  _99
REMARK   41  A    between atoms: _99  and  _100
REMARK   42  A    between atoms: _103  and  _105
REMARK   43  A    between atoms: _105  and  _106
REMARK   44  A    between atoms: _105  and  _108
REMARK   45  A    between atoms: _111  and  _113
REMARK   46  A    between atoms: _113  and  _114
REMARK   47  A    between atoms: _116  and  _118
REMARK   48  A    between atoms: _118  and  _119
REMARK   49  A    between atoms: _118  and  _121
REMARK   50  A    between atoms: _124  and  _126
REMARK   51  A    between atoms: _126  and  _127
REMARK   52  A    between atoms: _126  and  _129
REMARK   53  A    between atoms: _129  and  _130
REMARK   54  A    between atoms: _136  and  _138
REMARK   55  A    between atoms: _138  and  _139
REMARK   56  A    between atoms: _138  and  _141
REMARK   57  A    between atoms: _144  and  _146
REMARK   58  A    between atoms: _146  and  _147
REMARK   59  A    between atoms: _146  and  _149
REMARK   60  A    between atoms: _149  and  _150
REMARK   61  A    between atoms: _156  and  _158
REMARK   62  A    between atoms: _158  and  _159
REMARK   63  A    between atoms: _158  and  _161
REMARK   64  A    between atoms: _161  and  _162
REMARK   65  A    between atoms: _167  and  _168
REMARK   66  A    between atoms: _170  and  _172
REMARK   67  A    between atoms: _172  and  _173
REMARK   68  A    between atoms: _172  and  _175
REMARK   69  A    between atoms: _175  and  _176
REMARK   70  A    between atoms: _176  and  _177
REMARK   71  A    between atoms: _179  and  _181
REMARK   72  A    between atoms: _181  and  _182
REMARK   73  A    between atoms: _181  and  _184
REMARK   74  A    between atoms: _184  and  _185
REMARK   75  A    between atoms: _190  and  _191
REMARK   76  A    between atoms: _193  and  _195
REMARK   77  A    between atoms: _195  and  _196
REMARK   78  A    between atoms: _195  and  _198
REMARK   79  A    between atoms: _198  and  _199
REMARK   80  A    between atoms: _199  and  _200
REMARK   81  A    between atoms: _200  and  _201
REMARK   82  A    between atoms: _210  and  _212
REMARK   83  A    between atoms: _212  and  _213
REMARK   84  A    between atoms: _212  and  _215
REMARK   85  A    between atoms: _215  and  _216
REMARK   86  A    between atoms: _216  and  _217
REMARK   87  A    between atoms: _220  and  _222
REMARK   88  A    between atoms: _222  and  _223
REMARK   89  A    between atoms: _222  and  _225
REMARK   90  A    between atoms: _225  and  _226
REMARK   91  A    between atoms: _226  and  _227
REMARK   92  A    between atoms: _232  and  _234
REMARK   93  A    between atoms: _234  and  _235
REMARK   94  A    between atoms: _234  and  _237
REMARK   95  A    between atoms: _237  and  _238
REMARK   96  A    between atoms: _238  and  _239
REMARK   97  A    between atoms: _239  and  _240
REMARK   98  A    between atoms: _240  and  _241
REMARK   99  A    between atoms: _245  and  _247
REMARK  100  A    between atoms: _247  and  _248
REMARK  101  A    between atoms: _251  and  _253
REMARK  102  A    between atoms: _253  and  _254
REMARK  103  A    between atoms: _256  and  _258
REMARK  104  A    between atoms: _258  and  _259
REMARK  105  A    between atoms: _258  and  _261
REMARK  106  A    between atoms: _261  and  _262
REMARK  107  A    between atoms: _267  and  _269
REMARK  108  A    between atoms: _269  and  _270
REMARK  109  A    between atoms: _269  and  _272
REMARK  110  A    between atoms: _272  and  _273
REMARK  111  A    between atoms: _273  and  _274
REMARK  112  A    between atoms: _277  and  _279
REMARK  113  A    between atoms: _279  and  _280
REMARK  114  A    between atoms: _279  and  _282
REMARK  115  A    between atoms: _282  and  _283
REMARK  116  A    between atoms: _283  and  _284
REMARK  117  A    between atoms: _289  and  _291
REMARK  118  A    between atoms: _291  and  _292
REMARK  119  A    between atoms: _291  and  _294
REMARK  120  A    between atoms: _294  and  _295
REMARK  121  A    between atoms: _297  and  _299
REMARK  122  A    between atoms: _299  and  _300
REMARK  123  A    between atoms: _299  and  _302
REMARK  124  A    between atoms: _302  and  _303
REMARK  125  A    between atoms: _309  and  _311
REMARK  126  A    between atoms: _311  and  _312
REMARK  127  A    between atoms: _311  and  _314
REMARK  128  A    between atoms: _314  and  _315
REMARK  129  A    between atoms: _315  and  _316
REMARK  130  A    between atoms: _316  and  _317
REMARK  131  A    between atoms: _326  and  _328
REMARK  132  A    between atoms: _328  and  _329
REMARK  133  A    between atoms: _328  and  _331
REMARK  134  A    between atoms: _334  and  _336
REMARK  135  A    between atoms: _336  and  _337
REMARK  136  A    between atoms: _336  and  _339
REMARK  137  A    between atoms: _339  and  _340
REMARK  138  A    between atoms: _343  and  _345
REMARK  139  A    between atoms: _345  and  _346
REMARK  140  A    between atoms: _345  and  _348
REMARK  141  A    between atoms: _348  and  _349
REMARK  142  A    between atoms: _352  and  _354
REMARK  143  A    between atoms: _354  and  _355
REMARK  144  A    between atoms: _354  and  _357
REMARK  145  A    between atoms: _357  and  _358
REMARK  146  A    between atoms: _358  and  _359
REMARK  147  A    between atoms: _359  and  _360
REMARK  148  A    between atoms: _369  and  _371
REMARK  149  A    between atoms: _371  and  _372
REMARK  150  A    between atoms: _371  and  _374
REMARK  151  A    between atoms: _374  and  _375
REMARK  152  A    between atoms: _378  and  _380
REMARK  153  A    between atoms: _380  and  _381
REMARK  154  A    between atoms: _380  and  _383
REMARK  155  A    between atoms: _383  and  _384
REMARK  156  A    between atoms: _387  and  _389
REMARK  157  A    between atoms: _389  and  _390
REMARK  158  A    between atoms: _389  and  _392
REMARK  159  A    between atoms: _392  and  _393
REMARK  160  A    between atoms: _398  and  _399
REMARK  161  A    between atoms: _401  and  _403
REMARK  162  A    between atoms: _403  and  _404
REMARK  163  A    between atoms: _403  and  _406
REMARK  164  A    between atoms: _406  and  _407
REMARK  165  A    between atoms: _412  and  _413
REMARK  166  A    between atoms: _415  and  _417
REMARK  167  A    between atoms: _417  and  _418
REMARK  168  A    between atoms: _417  and  _420
REMARK  169  A    between atoms: _420  and  _421
REMARK  170  A    between atoms: _424  and  _426
REMARK  171  A    between atoms: _426  and  _427
REMARK  172  A    between atoms: _426  and  _429
REMARK  173  A    between atoms: _429  and  _430
REMARK  174  A    between atoms: _430  and  _431
REMARK  175  A    between atoms: _436  and  _438
REMARK  176  A    between atoms: _438  and  _439
REMARK  177  A    between atoms: _438  and  _441
REMARK  178  A    between atoms: _444  and  _446
REMARK  179  A    between atoms: _446  and  _447
REMARK  180  A    between atoms: _446  and  _449
REMARK  181  A    between atoms: _449  and  _450
REMARK  182  A    between atoms: _453  and  _455
REMARK  183  A    between atoms: _455  and  _456
REMARK  184  A    between atoms: _455  and  _458
REMARK  185  A    between atoms: _458  and  _459
REMARK  186  A    between atoms: _461  and  _463
REMARK  187  A    between atoms: _463  and  _464
REMARK  188  A    between atoms: _466  and  _468
REMARK  189  A    between atoms: _468  and  _469
REMARK  190  A    between atoms: _468  and  _471
REMARK  191  A    between atoms: _471  and  _472
REMARK  192  A    between atoms: _472  and  _774
REMARK  193  A    between atoms: _473  and  _475
REMARK  194  A    between atoms: _475  and  _476
REMARK  195  A    between atoms: _475  and  _478
REMARK  196  A    between atoms: _478  and  _479
REMARK  197  A    between atoms: _484  and  _485
REMARK  198  A    between atoms: _487  and  _489
REMARK  199  A    between atoms: _489  and  _490
REMARK  200  A    between atoms: _489  and  _492
REMARK  201  A    between atoms: _492  and  _493
REMARK  202  A    between atoms: _493  and  _494
REMARK  203  A    between atoms: _499  and  _501
REMARK  204  A    between atoms: _501  and  _502
REMARK  205  A    between atoms: _501  and  _504
REMARK  206  A    between atoms: _504  and  _505
REMARK  207  A    between atoms: _505  and  _506
REMARK  208  A    between atoms: _511  and  _513
REMARK  209  A    between atoms: _513  and  _514
REMARK  210  A    between atoms: _513  and  _516
REMARK  211  A    between atoms: _516  and  _517
REMARK  212  A    between atoms: _522  and  _523
REMARK  213  A    between atoms: _525  and  _527
REMARK  214  A    between atoms: _527  and  _528
REMARK  215  A    between atoms: _531  and  _533
REMARK  216  A    between atoms: _533  and  _534
REMARK  217  A    between atoms: _533  and  _536
REMARK  218  A    between atoms: _536  and  _537
REMARK  219  A    between atoms: _542  and  _543
REMARK  220  A    between atoms: _545  and  _547
REMARK  221  A    between atoms: _547  and  _548
REMARK  222  A    between atoms: _547  and  _550
REMARK  223  A    between atoms: _550  and  _551
REMARK  224  A    between atoms: _556  and  _557
REMARK  225  A    between atoms: _559  and  _561
REMARK  226  A    between atoms: _561  and  _562
REMARK  227  A    between atoms: _561  and  _564
REMARK  228  A    between atoms: _564  and  _565
REMARK  229  A    between atoms: _568  and  _570
REMARK  230  A    between atoms: _570  and  _571
REMARK  231  A    between atoms: _574  and  _576
REMARK  232  A    between atoms: _576  and  _577
REMARK  233  A    between atoms: _580  and  _582
REMARK  234  A    between atoms: _582  and  _583
REMARK  235  A    between atoms: _582  and  _585
REMARK  236  A    between atoms: _585  and  _586
REMARK  237  A    between atoms: _589  and  _591
REMARK  238  A    between atoms: _591  and  _592
REMARK  239  A    between atoms: _591  and  _594
REMARK  240  A    between atoms: _594  and  _595
REMARK  241  A    between atoms: _598  and  _600
REMARK  242  A    between atoms: _600  and  _601
REMARK  243  A    between atoms: _600  and  _603
REMARK  244  A    between atoms: _603  and  _604
REMARK  245  A    between atoms: _607  and  _609
REMARK  246  A    between atoms: _609  and  _610
REMARK  247  A    between atoms: _609  and  _612
REMARK  248  A    between atoms: _612  and  _613
REMARK  249  A    between atoms: _613  and  _614
REMARK  250  A    between atoms: _614  and  _615
REMARK  251  A    between atoms: _615  and  _616
REMARK  252  A    between atoms: _620  and  _622
REMARK  253  A    between atoms: _622  and  _623
REMARK  254  A    between atoms: _622  and  _625
REMARK  255  A    between atoms: _625  and  _626
REMARK  256  A    between atoms: _631  and  _633
REMARK  257  A    between atoms: _633  and  _634
REMARK  258  A    between atoms: _633  and  _636
REMARK  259  A    between atoms: _636  and  _637
REMARK  260  A    between atoms: _637  and  _638
REMARK  261  A    between atoms: _638  and  _639
REMARK  262  A    between atoms: _639  and  _640
REMARK  263  A    between atoms: _644  and  _646
REMARK  264  A    between atoms: _646  and  _647
REMARK  265  A    between atoms: _646  and  _649
REMARK  266  A    between atoms: _649  and  _650
REMARK  267  A    between atoms: _660  and  _662
REMARK  268  A    between atoms: _662  and  _663
REMARK  269  A    between atoms: _666  and  _668
REMARK  270  A    between atoms: _668  and  _669
REMARK  271  A    between atoms: _671  and  _673
REMARK  272  A    between atoms: _673  and  _674
REMARK  273  A    between atoms: _673  and  _676
REMARK  274  A    between atoms: _676  and  _677
REMARK  275  A    between atoms: _677  and  _678
REMARK  276  A    between atoms: _681  and  _683
REMARK  277  A    between atoms: _683  and  _684
REMARK  278  A    between atoms: _687  and  _689
REMARK  279  A    between atoms: _689  and  _690
REMARK  280  A    between atoms: _689  and  _692
REMARK  281  A    between atoms: _692  and  _693
REMARK  282  A    between atoms: _693  and  _694
REMARK  283  A    between atoms: _694  and  _695
REMARK  284  A    between atoms: _704  and  _706
REMARK  285  A    between atoms: _706  and  _707
REMARK  286  A    between atoms: _706  and  _709
REMARK  287  A    between atoms: _709  and  _710
REMARK  288  A    between atoms: _713  and  _715
REMARK  289  A    between atoms: _715  and  _716
REMARK  290  A    between atoms: _715  and  _718
REMARK  291  A    between atoms: _718  and  _719
REMARK  292  A    between atoms: _719  and  _720
REMARK  293  A    between atoms: _720  and  _721
REMARK  294  A    between atoms: _730  and  _732
REMARK  295  A    between atoms: _732  and  _733
REMARK  296  A    between atoms: _736  and  _738
REMARK  297  A    between atoms: _738  and  _739
REMARK  298  A    between atoms: _738  and  _741
REMARK  299  A    between atoms: _741  and  _742
REMARK  300  A    between atoms: _747  and  _748
REMARK  301  A    between atoms: _750  and  _752
REMARK  302  A    between atoms: _752  and  _753
REMARK  303  A    between atoms: _752  and  _755
REMARK  304  A    between atoms: _755  and  _756
REMARK  305  A    between atoms: _759  and  _761
REMARK  306  A    between atoms: _761  and  _762
REMARK  307  A    between atoms: _761  and  _764
REMARK  308  A    between atoms: _764  and  _765
REMARK  309  A    between atoms: _768  and  _770
REMARK  310  A    between atoms: _770  and  _771
REMARK  311  A    between atoms: _770  and  _773
REMARK  312  A    between atoms: _773  and  _774
REMARK  313  A    between atoms: _775  and  _777
REMARK  314  A    between atoms: _777  and  _778
REMARK  315  A    between atoms: _777  and  _780
REMARK  316  A    between atoms: _783  and  _785
REMARK  317  A    between atoms: _785  and  _786
REMARK  318  A    between atoms: _785  and  _788
REMARK  319  A    between atoms: _788  and  _789
REMARK  320  A    between atoms: _789  and  _790
REMARK  321  A    between atoms: _793  and  _795
REMARK  322  A    between atoms: _795  and  _796
REMARK  323  A    between atoms: _795  and  _798
REMARK  324  A    between atoms: _798  and  _799
REMARK  325  A    between atoms: _809  and  _811
REMARK  326  A    between atoms: _811  and  _812
REMARK  327  A    between atoms: _811  and  _814
REMARK  328  A    between atoms: _814  and  _815
REMARK  329  A    between atoms: _818  and  _820
REMARK  330  A    between atoms: _820  and  _821
REMARK  331  A    between atoms: _820  and  _823
REMARK  332  A    between atoms: _823  and  _824
REMARK  333  A    between atoms: _829  and  _830
REMARK                            x       y       z     vdW  Elec       q    Type
REMARK                         _______ _______ _______ _____ _____    ______ ____
ROOT
ATOM      1  O   HOH     1     -23.198  -2.784  31.472  0.00  0.00    +0.000 OA
ENDROOT
TORSDOF 0
REMARK  Name = ../refined-set-2016/3p9l/3p9l_pocket.pdb
REMARK  333 active torsions:
REMARK  status: ('A' for Active; 'I' for Inactive)
REMARK    1  A    between atoms: _1  and  _3
REMARK    2  A    between atoms: _3  and  _4
REMARK    3  A    between atoms: _3  and  _6
REMARK    4  A    between atoms: _6  and  _7
REMARK    5  A    between atoms: _10  and  _12
REMARK    6  A    between atoms: _12  and  _13
REMARK    7  A    between atoms: _12  and  _15
REMARK    8  A    between atoms: _15  and  _16
REMARK    9  A    between atoms: _16  and  _17
REMARK   10  A    between atoms: _17  and  _18
REMARK   11  A    between atoms: _27  and  _29
REMARK   12  A    between atoms: _29  and  _30
REMARK   13  A    between atoms: _29  and  _32
REMARK   14  A    between atoms: _32  and  _33
REMARK   15  A    between atoms: _38  and  _39
REMARK   16  A    between atoms: _41  and  _43
REMARK   17  A    between atoms: _43  and  _44
REMARK   18  A    between atoms: _43  and  _46
REMARK   19  A    between atoms: _46  and  _47
REMARK   20  A    between atoms: _53  and  _55
REMARK   21  A    between atoms: _55  and  _56
REMARK   22  A    between atoms: _55  and  _58
REMARK   23  A    between atoms: _61  and  _63
REMARK   24  A    between atoms: _63  and  _64
REMARK   25  A    between atoms: _63  and  _66
REMARK   26  A    between atoms: _66  and  _67
REMARK   27  A    between atoms: _70  and  _72
REMARK   28  A    between atoms: _72  and  _73
REMARK   29  A    between atoms: _72  and  _75
REMARK   30  A    between atoms: _75  and  _76
REMARK   31  A    between atoms: _81  and  _82
REMARK   32  A    between atoms: _84  and  _86
REMARK   33  A    between atoms: _86  and  _87
REMARK   34  A    between atoms: _86  and  _89
REMARK   35  A    between atoms: _89  and  _90
REMARK   36  A    between atoms: _90  and  _91
REMARK   37  A    between atoms: _93  and  _95
REMARK   38  A    between atoms: _95  and  _96
REMARK   39  A    between atoms: _95  and  _98
REMARK   40  A    between atoms: _98  and  _99
REMARK   41  A    between atoms: _99  and  _100
REMARK   42  A    between atoms: _103  and  _105
REMARK   43  A    between atoms: _105  and  _106
REMARK   44  A    between atoms: _105  and  _108
REMARK   45  A    between atoms: _111  and  _113
REMARK   46  A    between atoms: _113  and  _114
REMARK   47  A    between atoms: _116  and  _118
REMARK   48  A    between atoms: _118  and  _119
REMARK   49  A    between atoms: _118  and  _121
REMARK   50  A    between atoms: _124  and  _126
REMARK   51  A    between atoms: _126  and  _127
REMARK   52  A    between atoms: _126  and  _129
REMARK   53  A    between atoms: _129  and  _130
REMARK   54  A    between atoms: _136  and  _138
REMARK   55  A    between atoms: _138  and  _139
REMARK   56  A    between atoms: _138  and  _141
REMARK   57  A    between atoms: _144  and  _146
REMARK   58  A    between atoms: _146  and  _147
REMARK   59  A    between atoms: _146  and  _149
REMARK   60  A    between atoms: _149  and  _150
REMARK   61  A    between atoms: _156  and  _158
REMARK   62  A    between atoms: _158  and  _159
REMARK   63  A    between atoms: _158  and  _161
REMARK   64  A    between atoms: _161  and  _162
REMARK   65  A    between atoms: _167  and  _168
REMARK   66  A    between atoms: _170  and  _172
REMARK   67  A    between atoms: _172  and  _173
REMARK   68  A    between atoms: _172  and  _175
REMARK   69  A    between atoms: _175  and  _176
REMARK   70  A    between atoms: _176  and  _177
REMARK   71  A    between atoms: _179  and  _181
REMARK   72  A    between atoms: _181  and  _182
REMARK   73  A    between atoms: _181  and  _184
REMARK   74  A    between atoms: _184  and  _185
REMARK   75  A    between atoms: _190  and  _191
REMARK   76  A    between atoms: _193  and  _195
REMARK   77  A    between atoms: _195  and  _196
REMARK   78  A    between atoms: _195  and  _198
REMARK   79  A    between atoms: _198  and  _199
REMARK   80  A    between atoms: _199  and  _200
REMARK   81  A    between atoms: _200  and  _201
REMARK   82  A    between atoms: _210  and  _212
REMARK   83  A    between atoms: _212  and  _213
REMARK   84  A    between atoms: _212  and  _215
REMARK   85  A    between atoms: _215  and  _216
REMARK   86  A    between atoms: _216  and  _217
REMARK   87  A    between atoms: _220  and  _222
REMARK   88  A    between atoms: _222  and  _223
REMARK   89  A    between atoms: _222  and  _225
REMARK   90  A    between atoms: _225  and  _226
REMARK   91  A    between atoms: _226  and  _227
REMARK   92  A    between atoms: _232  and  _234
REMARK   93  A    between atoms: _234  and  _235
REMARK   94  A    between atoms: _234  and  _237
REMARK   95  A    between atoms: _237  and  _238
REMARK   96  A    between atoms: _238  and  _239
REMARK   97  A    between atoms: _239  and  _240
REMARK   98  A    between atoms: _240  and  _241
REMARK   99  A    between atoms: _245  and  _247
REMARK  100  A    between atoms: _247  and  _248
REMARK  101  A    between atoms: _251  and  _253
REMARK  102  A    between atoms: _253  and  _254
REMARK  103  A    between atoms: _256  and  _258
REMARK  104  A    between atoms: _258  and  _259
REMARK  105  A    between atoms: _258  and  _261
REMARK  106  A    between atoms: _261  and  _262
REMARK  107  A    between atoms: _267  and  _269
REMARK  108  A    between atoms: _269  and  _270
REMARK  109  A    between atoms: _269  and  _272
REMARK  110  A    between atoms: _272  and  _273
REMARK  111  A    between atoms: _273  and  _274
REMARK  112  A    between atoms: _277  and  _279
REMARK  113  A    between atoms: _279  and  _280
REMARK  114  A    between atoms: _279  and  _282
REMARK  115  A    between atoms: _282  and  _283
REMARK  116  A    between atoms: _283  and  _284
REMARK  117  A    between atoms: _289  and  _291
REMARK  118  A    between atoms: _291  and  _292
REMARK  119  A    between atoms: _291  and  _294
REMARK  120  A    between atoms: _294  and  _295
REMARK  121  A    between atoms: _297  and  _299
REMARK  122  A    between atoms: _299  and  _300
REMARK  123  A    between atoms: _299  and  _302
REMARK  124  A    between atoms: _302  and  _303
REMARK  125  A    between atoms: _309  and  _311
REMARK  126  A    between atoms: _311  and  _312
REMARK  127  A    between atoms: _311  and  _314
REMARK  128  A    between atoms: _314  and  _315
REMARK  129  A    between atoms: _315  and  _316
REMARK  130  A    between atoms: _316  and  _317
REMARK  131  A    between atoms: _326  and  _328
REMARK  132  A    between atoms: _328  and  _329
REMARK  133  A    between atoms: _328  and  _331
REMARK  134  A    between atoms: _334  and  _336
REMARK  135  A    between atoms: _336  and  _337
REMARK  136  A    between atoms: _336  and  _339
REMARK  137  A    between atoms: _339  and  _340
REMARK  138  A    between atoms: _343  and  _345
REMARK  139  A    between atoms: _345  and  _346
REMARK  140  A    between atoms: _345  and  _348
REMARK  141  A    between atoms: _348  and  _349
REMARK  142  A    between atoms: _352  and  _354
REMARK  143  A    between atoms: _354  and  _355
REMARK  144  A    between atoms: _354  and  _357
REMARK  145  A    between atoms: _357  and  _358
REMARK  146  A    between atoms: _358  and  _359
REMARK  147  A    between atoms: _359  and  _360
REMARK  148  A    between atoms: _369  and  _371
REMARK  149  A    between atoms: _371  and  _372
REMARK  150  A    between atoms: _371  and  _374
REMARK  151  A    between atoms: _374  and  _375
REMARK  152  A    between atoms: _378  and  _380
REMARK  153  A    between atoms: _380  and  _381
REMARK  154  A    between atoms: _380  and  _383
REMARK  155  A    between atoms: _383  and  _384
REMARK  156  A    between atoms: _387  and  _389
REMARK  157  A    between atoms: _389  and  _390
REMARK  158  A    between atoms: _389  and  _392
REMARK  159  A    between atoms: _392  and  _393
REMARK  160  A    between atoms: _398  and  _399
REMARK  161  A    between atoms: _401  and  _403
REMARK  162  A    between atoms: _403  and  _404
REMARK  163  A    between atoms: _403  and  _406
REMARK  164  A    between atoms: _406  and  _407
REMARK  165  A    between atoms: _412  and  _413
REMARK  166  A    between atoms: _415  and  _417
REMARK  167  A    between atoms: _417  and  _418
REMARK  168  A    between atoms: _417  and  _420
REMARK  169  A    between atoms: _420  and  _421
REMARK  170  A    between atoms: _424  and  _426
REMARK  171  A    between atoms: _426  and  _427
REMARK  172  A    between atoms: _426  and  _429
REMARK  173  A    between atoms: _429  and  _430
REMARK  174  A    between atoms: _430  and  _431
REMARK  175  A    between atoms: _436  and  _438
REMARK  176  A    between atoms: _438  and  _439
REMARK  177  A    between atoms: _438  and  _441
REMARK  178  A    between atoms: _444  and  _446
REMARK  179  A    between atoms: _446  and  _447
REMARK  180  A    between atoms: _446  and  _449
REMARK  181  A    between atoms: _449  and  _450
REMARK  182  A    between atoms: _453  and  _455
REMARK  183  A    between atoms: _455  and  _456
REMARK  184  A    between atoms: _455  and  _458
REMARK  185  A    between atoms: _458  and  _459
REMARK  186  A    between atoms: _461  and  _463
REMARK  187  A    between atoms: _463  and  _464
REMARK  188  A    between atoms: _466  and  _468
REMARK  189  A    between atoms: _468  and  _469
REMARK  190  A    between atoms: _468  and  _471
REMARK  191  A    between atoms: _471  and  _472
REMARK  192  A    between atoms: _472  and  _774
REMARK  193  A    between atoms: _473  and  _475
REMARK  194  A    between atoms: _475  and  _476
REMARK  195  A    between atoms: _475  and  _478
REMARK  196  A    between atoms: _478  and  _479
REMARK  197  A    between atoms: _484  and  _485
REMARK  198  A    between atoms: _487  and  _489
REMARK  199  A    between atoms: _489  and  _490
REMARK  200  A    between atoms: _489  and  _492
REMARK  201  A    between atoms: _492  and  _493
REMARK  202  A    between atoms: _493  and  _494
REMARK  203  A    between atoms: _499  and  _501
REMARK  204  A    between atoms: _501  and  _502
REMARK  205  A    between atoms: _501  and  _504
REMARK  206  A    between atoms: _504  and  _505
REMARK  207  A    between atoms: _505  and  _506
REMARK  208  A    between atoms: _511  and  _513
REMARK  209  A    between atoms: _513  and  _514
REMARK  210  A    between atoms: _513  and  _516
REMARK  211  A    between atoms: _516  and  _517
REMARK  212  A    between atoms: _522  and  _523
REMARK  213  A    between atoms: _525  and  _527
REMARK  214  A    between atoms: _527  and  _528
REMARK  215  A    between atoms: _531  and  _533
REMARK  216  A    between atoms: _533  and  _534
REMARK  217  A    between atoms: _533  and  _536
REMARK  218  A    between atoms: _536  and  _537
REMARK  219  A    between atoms: _542  and  _543
REMARK  220  A    between atoms: _545  and  _547
REMARK  221  A    between atoms: _547  and  _548
REMARK  222  A    between atoms: _547  and  _550
REMARK  223  A    between atoms: _550  and  _551
REMARK  224  A    between atoms: _556  and  _557
REMARK  225  A    between atoms: _559  and  _561
REMARK  226  A    between atoms: _561  and  _562
REMARK  227  A    between atoms: _561  and  _564
REMARK  228  A    between atoms: _564  and  _565
REMARK  229  A    between atoms: _568  and  _570
REMARK  230  A    between atoms: _570  and  _571
REMARK  231  A    between atoms: _574  and  _576
REMARK  232  A    between atoms: _576  and  _577
REMARK  233  A    between atoms: _580  and  _582
REMARK  234  A    between atoms: _582  and  _583
REMARK  235  A    between atoms: _582  and  _585
REMARK  236  A    between atoms: _585  and  _586
REMARK  237  A    between atoms: _589  and  _591
REMARK  238  A    between atoms: _591  and  _592
REMARK  239  A    between atoms: _591  and  _594
REMARK  240  A    between atoms: _594  and  _595
REMARK  241  A    between atoms: _598  and  _600
REMARK  242  A    between atoms: _600  and  _601
REMARK  243  A    between atoms: _600  and  _603
REMARK  244  A    between atoms: _603  and  _604
REMARK  245  A    between atoms: _607  and  _609
REMARK  246  A    between atoms: _609  and  _610
REMARK  247  A    between atoms: _609  and  _612
REMARK  248  A    between atoms: _612  and  _613
REMARK  249  A    between atoms: _613  and  _614
REMARK  250  A    between atoms: _614  and  _615
REMARK  251  A    between atoms: _615  and  _616
REMARK  252  A    between atoms: _620  and  _622
REMARK  253  A    between atoms: _622  and  _623
REMARK  254  A    between atoms: _622  and  _625
REMARK  255  A    between atoms: _625  and  _626
REMARK  256  A    between atoms: _631  and  _633
REMARK  257  A    between atoms: _633  and  _634
REMARK  258  A    between atoms: _633  and  _636
REMARK  259  A    between atoms: _636  and  _637
REMARK  260  A    between atoms: _637  and  _638
REMARK  261  A    between atoms: _638  and  _639
REMARK  262  A    between atoms: _639  and  _640
REMARK  263  A    between atoms: _644  and  _646
REMARK  264  A    between atoms: _646  and  _647
REMARK  265  A    between atoms: _646  and  _649
REMARK  266  A    between atoms: _649  and  _650
REMARK  267  A    between atoms: _660  and  _662
REMARK  268  A    between atoms: _662  and  _663
REMARK  269  A    between atoms: _666  and  _668
REMARK  270  A    between atoms: _668  and  _669
REMARK  271  A    between atoms: _671  and  _673
REMARK  272  A    between atoms: _673  and  _674
REMARK  273  A    between atoms: _673  and  _676
REMARK  274  A    between atoms: _676  and  _677
REMARK  275  A    between atoms: _677  and  _678
REMARK  276  A    between atoms: _681  and  _683
REMARK  277  A    between atoms: _683  and  _684
REMARK  278  A    between atoms: _687  and  _689
REMARK  279  A    between atoms: _689  and  _690
REMARK  280  A    between atoms: _689  and  _692
REMARK  281  A    between atoms: _692  and  _693
REMARK  282  A    between atoms: _693  and  _694
REMARK  283  A    between atoms: _694  and  _695
REMARK  284  A    between atoms: _704  and  _706
REMARK  285  A    between atoms: _706  and  _707
REMARK  286  A    between atoms: _706  and  _709
REMARK  287  A    between atoms: _709  and  _710
REMARK  288  A    between atoms: _713  and  _715
REMARK  289  A    between atoms: _715  and  _716
REMARK  290  A    between atoms: _715  and  _718
REMARK  291  A    between atoms: _718  and  _719
REMARK  292  A    between atoms: _719  and  _720
REMARK  293  A    between atoms: _720  and  _721
REMARK  294  A    between atoms: _730  and  _732
REMARK  295  A    between atoms: _732  and  _733
REMARK  296  A    between atoms: _736  and  _738
REMARK  297  A    between atoms: _738  and  _739
REMARK  298  A    between atoms: _738  and  _741
REMARK  299  A    between atoms: _741  and  _742
REMARK  300  A    between atoms: _747  and  _748
REMARK  301  A    between atoms: _750  and  _752
REMARK  302  A    between atoms: _752  and  _753
REMARK  303  A    between atoms: _752  and  _755
REMARK  304  A    between atoms: _755  and  _756
REMARK  305  A    between atoms: _759  and  _761
REMARK  306  A    between atoms: _761  and  _762
REMARK  307  A    between atoms: _761  and  _764
REMARK  308  A    between atoms: _764  and  _765
REMARK  309  A    between atoms: _768  and  _770
REMARK  310  A    between atoms: _770  and  _771
REMARK  311  A    between atoms: _770  and  _773
REMARK  312  A    between atoms: _773  and  _774
REMARK  313  A    between atoms: _775  and  _777
REMARK  314  A    between atoms: _777  and  _778
REMARK  315  A    between atoms: _777  and  _780
REMARK  316  A    between atoms: _783  and  _785
REMARK  317  A    between atoms: _785  and  _786
REMARK  318  A    between atoms: _785  and  _788
REMARK  319  A    between atoms: _788  and  _789
REMARK  320  A    between atoms: _789  and  _790
REMARK  321  A    between atoms: _793  and  _795
REMARK  322  A    between atoms: _795  and  _796
REMARK  323  A    between atoms: _795  and  _798
REMARK  324  A    between atoms: _798  and  _799
REMARK  325  A    between atoms: _809  and  _811
REMARK  326  A    between atoms: _811  and  _812
REMARK  327  A    between atoms: _811  and  _814
REMARK  328  A    between atoms: _814  and  _815
REMARK  329  A    between atoms: _818  and  _820
REMARK  330  A    between atoms: _820  and  _821
REMARK  331  A    between atoms: _820  and  _823
REMARK  332  A    between atoms: _823  and  _824
REMARK  333  A    between atoms: _829  and  _830
REMARK                            x       y       z     vdW  Elec       q    Type
REMARK                         _______ _______ _______ _____ _____    ______ ____
ROOT
ATOM      1  O   HOH     1     -19.058  24.892  32.350  0.00  0.00    +0.000 OA
ENDROOT
TORSDOF 0
REMARK  Name = ../refined-set-2016/3p9l/3p9l_pocket.pdb
REMARK  333 active torsions:
REMARK  status: ('A' for Active; 'I' for Inactive)
REMARK    1  A    between atoms: _1  and  _3
REMARK    2  A    between atoms: _3  and  _4
REMARK    3  A    between atoms: _3  and  _6
REMARK    4  A    between atoms: _6  and  _7
REMARK    5  A    between atoms: _10  and  _12
REMARK    6  A    between atoms: _12  and  _13
REMARK    7  A    between atoms: _12  and  _15
REMARK    8  A    between atoms: _15  and  _16
REMARK    9  A    between atoms: _16  and  _17
REMARK   10  A    between atoms: _17  and  _18
REMARK   11  A    between atoms: _27  and  _29
REMARK   12  A    between atoms: _29  and  _30
REMARK   13  A    between atoms: _29  and  _32
REMARK   14  A    between atoms: _32  and  _33
REMARK   15  A    between atoms: _38  and  _39
REMARK   16  A    between atoms: _41  and  _43
REMARK   17  A    between atoms: _43  and  _44
REMARK   18  A    between atoms: _43  and  _46
REMARK   19  A    between atoms: _46  and  _47
REMARK   20  A    between atoms: _53  and  _55
REMARK   21  A    between atoms: _55  and  _56
REMARK   22  A    between atoms: _55  and  _58
REMARK   23  A    between atoms: _61  and  _63
REMARK   24  A    between atoms: _63  and  _64
REMARK   25  A    between atoms: _63  and  _66
REMARK   26  A    between atoms: _66  and  _67
REMARK   27  A    between atoms: _70  and  _72
REMARK   28  A    between atoms: _72  and  _73
REMARK   29  A    between atoms: _72  and  _75
REMARK   30  A    between atoms: _75  and  _76
REMARK   31  A    between atoms: _81  and  _82
REMARK   32  A    between atoms: _84  and  _86
REMARK   33  A    between atoms: _86  and  _87
REMARK   34  A    between atoms: _86  and  _89
REMARK   35  A    between atoms: _89  and  _90
REMARK   36  A    between atoms: _90  and  _91
REMARK   37  A    between atoms: _93  and  _95
REMARK   38  A    between atoms: _95  and  _96
REMARK   39  A    between atoms: _95  and  _98
REMARK   40  A    between atoms: _98  and  _99
REMARK   41  A    between atoms: _99  and  _100
REMARK   42  A    between atoms: _103  and  _105
REMARK   43  A    between atoms: _105  and  _106
REMARK   44  A    between atoms: _105  and  _108
REMARK   45  A    between atoms: _111  and  _113
REMARK   46  A    between atoms: _113  and  _114
REMARK   47  A    between atoms: _116  and  _118
REMARK   48  A    between atoms: _118  and  _119
REMARK   49  A    between atoms: _118  and  _121
REMARK   50  A    between atoms: _124  and  _126
REMARK   51  A    between atoms: _126  and  _127
REMARK   52  A    between atoms: _126  and  _129
REMARK   53  A    between atoms: _129  and  _130
REMARK   54  A    between atoms: _136  and  _138
REMARK   55  A    between atoms: _138  and  _139
REMARK   56  A    between atoms: _138  and  _141
REMARK   57  A    between atoms: _144  and  _146
REMARK   58  A    between atoms: _146  and  _147
REMARK   59  A    between atoms: _146  and  _149
REMARK   60  A    between atoms: _149  and  _150
REMARK   61  A    between atoms: _156  and  _158
REMARK   62  A    between atoms: _158  and  _159
REMARK   63  A    between atoms: _158  and  _161
REMARK   64  A    between atoms: _161  and  _162
REMARK   65  A    between atoms: _167  and  _168
REMARK   66  A    between atoms: _170  and  _172
REMARK   67  A    between atoms: _172  and  _173
REMARK   68  A    between atoms: _172  and  _175
REMARK   69  A    between atoms: _175  and  _176
REMARK   70  A    between atoms: _176  and  _177
REMARK   71  A    between atoms: _179  and  _181
REMARK   72  A    between atoms: _181  and  _182
REMARK   73  A    between atoms: _181  and  _184
REMARK   74  A    between atoms: _184  and  _185
REMARK   75  A    between atoms: _190  and  _191
REMARK   76  A    between atoms: _193  and  _195
REMARK   77  A    between atoms: _195  and  _196
REMARK   78  A    between atoms: _195  and  _198
REMARK   79  A    between atoms: _198  and  _199
REMARK   80  A    between atoms: _199  and  _200
REMARK   81  A    between atoms: _200  and  _201
REMARK   82  A    between atoms: _210  and  _212
REMARK   83  A    between atoms: _212  and  _213
REMARK   84  A    between atoms: _212  and  _215
REMARK   85  A    between atoms: _215  and  _216
REMARK   86  A    between atoms: _216  and  _217
REMARK   87  A    between atoms: _220  and  _222
REMARK   88  A    between atoms: _222  and  _223
REMARK   89  A    between atoms: _222  and  _225
REMARK   90  A    between atoms: _225  and  _226
REMARK   91  A    between atoms: _226  and  _227
REMARK   92  A    between atoms: _232  and  _234
REMARK   93  A    between atoms: _234  and  _235
REMARK   94  A    between atoms: _234  and  _237
REMARK   95  A    between atoms: _237  and  _238
REMARK   96  A    between atoms: _238  and  _239
REMARK   97  A    between atoms: _239  and  _240
REMARK   98  A    between atoms: _240  and  _241
REMARK   99  A    between atoms: _245  and  _247
REMARK  100  A    between atoms: _247  and  _248
REMARK  101  A    between atoms: _251  and  _253
REMARK  102  A    between atoms: _253  and  _254
REMARK  103  A    between atoms: _256  and  _258
REMARK  104  A    between atoms: _258  and  _259
REMARK  105  A    between atoms: _258  and  _261
REMARK  106  A    between atoms: _261  and  _262
REMARK  107  A    between atoms: _267  and  _269
REMARK  108  A    between atoms: _269  and  _270
REMARK  109  A    between atoms: _269  and  _272
REMARK  110  A    between atoms: _272  and  _273
REMARK  111  A    between atoms: _273  and  _274
REMARK  112  A    between atoms: _277  and  _279
REMARK  113  A    between atoms: _279  and  _280
REMARK  114  A    between atoms: _279  and  _282
REMARK  115  A    between atoms: _282  and  _283
REMARK  116  A    between atoms: _283  and  _284
REMARK  117  A    between atoms: _289  and  _291
REMARK  118  A    between atoms: _291  and  _292
REMARK  119  A    between atoms: _291  and  _294
REMARK  120  A    between atoms: _294  and  _295
REMARK  121  A    between atoms: _297  and  _299
REMARK  122  A    between atoms: _299  and  _300
REMARK  123  A    between atoms: _299  and  _302
REMARK  124  A    between atoms: _302  and  _303
REMARK  125  A    between atoms: _309  and  _311
REMARK  126  A    between atoms: _311  and  _312
REMARK  127  A    between atoms: _311  and  _314
REMARK  128  A    between atoms: _314  and  _315
REMARK  129  A    between atoms: _315  and  _316
REMARK  130  A    between atoms: _316  and  _317
REMARK  131  A    between atoms: _326  and  _328
REMARK  132  A    between atoms: _328  and  _329
REMARK  133  A    between atoms: _328  and  _331
REMARK  134  A    between atoms: _334  and  _336
REMARK  135  A    between atoms: _336  and  _337
REMARK  136  A    between atoms: _336  and  _339
REMARK  137  A    between atoms: _339  and  _340
REMARK  138  A    between atoms: _343  and  _345
REMARK  139  A    between atoms: _345  and  _346
REMARK  140  A    between atoms: _345  and  _348
REMARK  141  A    between atoms: _348  and  _349
REMARK  142  A    between atoms: _352  and  _354
REMARK  143  A    between atoms: _354  and  _355
REMARK  144  A    between atoms: _354  and  _357
REMARK  145  A    between atoms: _357  and  _358
REMARK  146  A    between atoms: _358  and  _359
REMARK  147  A    between atoms: _359  and  _360
REMARK  148  A    between atoms: _369  and  _371
REMARK  149  A    between atoms: _371  and  _372
REMARK  150  A    between atoms: _371  and  _374
REMARK  151  A    between atoms: _374  and  _375
REMARK  152  A    between atoms: _378  and  _380
REMARK  153  A    between atoms: _380  and  _381
REMARK  154  A    between atoms: _380  and  _383
REMARK  155  A    between atoms: _383  and  _384
REMARK  156  A    between atoms: _387  and  _389
REMARK  157  A    between atoms: _389  and  _390
REMARK  158  A    between atoms: _389  and  _392
REMARK  159  A    between atoms: _392  and  _393
REMARK  160  A    between atoms: _398  and  _399
REMARK  161  A    between atoms: _401  and  _403
REMARK  162  A    between atoms: _403  and  _404
REMARK  163  A    between atoms: _403  and  _406
REMARK  164  A    between atoms: _406  and  _407
REMARK  165  A    between atoms: _412  and  _413
REMARK  166  A    between atoms: _415  and  _417
REMARK  167  A    between atoms: _417  and  _418
REMARK  168  A    between atoms: _417  and  _420
REMARK  169  A    between atoms: _420  and  _421
REMARK  170  A    between atoms: _424  and  _426
REMARK  171  A    between atoms: _426  and  _427
REMARK  172  A    between atoms: _426  and  _429
REMARK  173  A    between atoms: _429  and  _430
REMARK  174  A    between atoms: _430  and  _431
REMARK  175  A    between atoms: _436  and  _438
REMARK  176  A    between atoms: _438  and  _439
REMARK  177  A    between atoms: _438  and  _441
REMARK  178  A    between atoms: _444  and  _446
REMARK  179  A    between atoms: _446  and  _447
REMARK  180  A    between atoms: _446  and  _449
REMARK  181  A    between atoms: _449  and  _450
REMARK  182  A    between atoms: _453  and  _455
REMARK  183  A    between atoms: _455  and  _456
REMARK  184  A    between atoms: _455  and  _458
REMARK  185  A    between atoms: _458  and  _459
REMARK  186  A    between atoms: _461  and  _463
REMARK  187  A    between atoms: _463  and  _464
REMARK  188  A    between atoms: _466  and  _468
REMARK  189  A    between atoms: _468  and  _469
REMARK  190  A    between atoms: _468  and  _471
REMARK  191  A    between atoms: _471  and  _472
REMARK  192  A    between atoms: _472  and  _774
REMARK  193  A    between atoms: _473  and  _475
REMARK  194  A    between atoms: _475  and  _476
REMARK  195  A    between atoms: _475  and  _478
REMARK  196  A    between atoms: _478  and  _479
REMARK  197  A    between atoms: _484  and  _485
REMARK  198  A    between atoms: _487  and  _489
REMARK  199  A    between atoms: _489  and  _490
REMARK  200  A    between atoms: _489  and  _492
REMARK  201  A    between atoms: _492  and  _493
REMARK  202  A    between atoms: _493  and  _494
REMARK  203  A    between atoms: _499  and  _501
REMARK  204  A    between atoms: _501  and  _502
REMARK  205  A    between atoms: _501  and  _504
REMARK  206  A    between atoms: _504  and  _505
REMARK  207  A    between atoms: _505  and  _506
REMARK  208  A    between atoms: _511  and  _513
REMARK  209  A    between atoms: _513  and  _514
REMARK  210  A    between atoms: _513  and  _516
REMARK  211  A    between atoms: _516  and  _517
REMARK  212  A    between atoms: _522  and  _523
REMARK  213  A    between atoms: _525  and  _527
REMARK  214  A    between atoms: _527  and  _528
REMARK  215  A    between atoms: _531  and  _533
REMARK  216  A    between atoms: _533  and  _534
REMARK  217  A    between atoms: _533  and  _536
REMARK  218  A    between atoms: _536  and  _537
REMARK  219  A    between atoms: _542  and  _543
REMARK  220  A    between atoms: _545  and  _547
REMARK  221  A    between atoms: _547  and  _548
REMARK  222  A    between atoms: _547  and  _550
REMARK  223  A    between atoms: _550  and  _551
REMARK  224  A    between atoms: _556  and  _557
REMARK  225  A    between atoms: _559  and  _561
REMARK  226  A    between atoms: _561  and  _562
REMARK  227  A    between atoms: _561  and  _564
REMARK  228  A    between atoms: _564  and  _565
REMARK  229  A    between atoms: _568  and  _570
REMARK  230  A    between atoms: _570  and  _571
REMARK  231  A    between atoms: _574  and  _576
REMARK  232  A    between atoms: _576  and  _577
REMARK  233  A    between atoms: _580  and  _582
REMARK  234  A    between atoms: _582  and  _583
REMARK  235  A    between atoms: _582  and  _585
REMARK  236  A    between atoms: _585  and  _586
REMARK  237  A    between atoms: _589  and  _591
REMARK  238  A    between atoms: _591  and  _592
REMARK  239  A    between atoms: _591  and  _594
REMARK  240  A    between atoms: _594  and  _595
REMARK  241  A    between atoms: _598  and  _600
REMARK  242  A    between atoms: _600  and  _601
REMARK  243  A    between atoms: _600  and  _603
REMARK  244  A    between atoms: _603  and  _604
REMARK  245  A    between atoms: _607  and  _609
REMARK  246  A    between atoms: _609  and  _610
REMARK  247  A    between atoms: _609  and  _612
REMARK  248  A    between atoms: _612  and  _613
REMARK  249  A    between atoms: _613  and  _614
REMARK  250  A    between atoms: _614  and  _615
REMARK  251  A    between atoms: _615  and  _616
REMARK  252  A    between atoms: _620  and  _622
REMARK  253  A    between atoms: _622  and  _623
REMARK  254  A    between atoms: _622  and  _625
REMARK  255  A    between atoms: _625  and  _626
REMARK  256  A    between atoms: _631  and  _633
REMARK  257  A    between atoms: _633  and  _634
REMARK  258  A    between atoms: _633  and  _636
REMARK  259  A    between atoms: _636  and  _637
REMARK  260  A    between atoms: _637  and  _638
REMARK  261  A    between atoms: _638  and  _639
REMARK  262  A    between atoms: _639  and  _640
REMARK  263  A    between atoms: _644  and  _646
REMARK  264  A    between atoms: _646  and  _647
REMARK  265  A    between atoms: _646  and  _649
REMARK  266  A    between atoms: _649  and  _650
REMARK  267  A    between atoms: _660  and  _662
REMARK  268  A    between atoms: _662  and  _663
REMARK  269  A    between atoms: _666  and  _668
REMARK  270  A    between atoms: _668  and  _669
REMARK  271  A    between atoms: _671  and  _673
REMARK  272  A    between atoms: _673  and  _674
REMARK  273  A    between atoms: _673  and  _676
REMARK  274  A    between atoms: _676  and  _677
REMARK  275  A    between atoms: _677  and  _678
REMARK  276  A    between atoms: _681  and  _683
REMARK  277  A    between atoms: _683  and  _684
REMARK  278  A    between atoms: _687  and  _689
REMARK  279  A    between atoms: _689  and  _690
REMARK  280  A    between atoms: _689  and  _692
REMARK  281  A    between atoms: _692  and  _693
REMARK  282  A    between atoms: _693  and  _694
REMARK  283  A    between atoms: _694  and  _695
REMARK  284  A    between atoms: _704  and  _706
REMARK  285  A    between atoms: _706  and  _707
REMARK  286  A    between atoms: _706  and  _709
REMARK  287  A    between atoms: _709  and  _710
REMARK  288  A    between atoms: _713  and  _715
REMARK  289  A    between atoms: _715  and  _716
REMARK  290  A    between atoms: _715  and  _718
REMARK  291  A    between atoms: _718  and  _719
REMARK  292  A    between atoms: _719  and  _720
REMARK  293  A    between atoms: _720  and  _721
REMARK  294  A    between atoms: _730  and  _732
REMARK  295  A    between atoms: _732  and  _733
REMARK  296  A    between atoms: _736  and  _738
REMARK  297  A    between atoms: _738  and  _739
REMARK  298  A    between atoms: _738  and  _741
REMARK  299  A    between atoms: _741  and  _742
REMARK  300  A    between atoms: _747  and  _748
REMARK  301  A    between atoms: _750  and  _752
REMARK  302  A    between atoms: _752  and  _753
REMARK  303  A    between atoms: _752  and  _755
REMARK  304  A    between atoms: _755  and  _756
REMARK  305  A    between atoms: _759  and  _761
REMARK  306  A    between atoms: _761  and  _762
REMARK  307  A    between atoms: _761  and  _764
REMARK  308  A    between atoms: _764  and  _765
REMARK  309  A    between atoms: _768  and  _770
REMARK  310  A    between atoms: _770  and  _771
REMARK  311  A    between atoms: _770  and  _773
REMARK  312  A    between atoms: _773  and  _774
REMARK  313  A    between atoms: _775  and  _777
REMARK  314  A    between atoms: _777  and  _778
REMARK  315  A    between atoms: _777  and  _780
REMARK  316  A    between atoms: _783  and  _785
REMARK  317  A    between atoms: _785  and  _786
REMARK  318  A    between atoms: _785  and  _788
REMARK  319  A    between atoms: _788  and  _789
REMARK  320  A    between atoms: _789  and  _790
REMARK  321  A    between atoms: _793  and  _795
REMARK  322  A    between atoms: _795  and  _796
REMARK  323  A    between atoms: _795  and  _798
REMARK  324  A    between atoms: _798  and  _799
REMARK  325  A    between atoms: _809  and  _811
REMARK  326  A    between atoms: _811  and  _812
REMARK  327  A    between atoms: _811  and  _814
REMARK  328  A    between atoms: _814  and  _815
REMARK  329  A    between atoms: _818  and  _820
REMARK  330  A    between atoms: _820  and  _821
REMARK  331  A    between atoms: _820  and  _823
REMARK  332  A    between atoms: _823  and  _824
REMARK  333  A    between atoms: _829  and  _830
REMARK                            x       y       z     vdW  Elec       q    Type
REMARK                         _______ _______ _______ _____ _____    ______ ____
ROOT
ATOM      1  O   HOH     1     -16.902  -1.053  28.880  0.00  0.00    +0.000 OA
ENDROOT
TORSDOF 0
REMARK  Name = ../refined-set-2016/3p9l/3p9l_pocket.pdb
REMARK  333 active torsions:
REMARK  status: ('A' for Active; 'I' for Inactive)
REMARK    1  A    between atoms: _1  and  _3
REMARK    2  A    between atoms: _3  and  _4
REMARK    3  A    between atoms: _3  and  _6
REMARK    4  A    between atoms: _6  and  _7
REMARK    5  A    between atoms: _10  and  _12
REMARK    6  A    between atoms: _12  and  _13
REMARK    7  A    between atoms: _12  and  _15
REMARK    8  A    between atoms: _15  and  _16
REMARK    9  A    between atoms: _16  and  _17
REMARK   10  A    between atoms: _17  and  _18
REMARK   11  A    between atoms: _27  and  _29
REMARK   12  A    between atoms: _29  and  _30
REMARK   13  A    between atoms: _29  and  _32
REMARK   14  A    between atoms: _32  and  _33
REMARK   15  A    between atoms: _38  and  _39
REMARK   16  A    between atoms: _41  and  _43
REMARK   17  A    between atoms: _43  and  _44
REMARK   18  A    between atoms: _43  and  _46
REMARK   19  A    between atoms: _46  and  _47
REMARK   20  A    between atoms: _53  and  _55
REMARK   21  A    between atoms: _55  and  _56
REMARK   22  A    between atoms: _55  and  _58
REMARK   23  A    between atoms: _61  and  _63
REMARK   24  A    between atoms: _63  and  _64
REMARK   25  A    between atoms: _63  and  _66
REMARK   26  A    between atoms: _66  and  _67
REMARK   27  A    between atoms: _70  and  _72
REMARK   28  A    between atoms: _72  and  _73
REMARK   29  A    between atoms: _72  and  _75
REMARK   30  A    between atoms: _75  and  _76
REMARK   31  A    between atoms: _81  and  _82
REMARK   32  A    between atoms: _84  and  _86
REMARK   33  A    between atoms: _86  and  _87
REMARK   34  A    between atoms: _86  and  _89
REMARK   35  A    between atoms: _89  and  _90
REMARK   36  A    between atoms: _90  and  _91
REMARK   37  A    between atoms: _93  and  _95
REMARK   38  A    between atoms: _95  and  _96
REMARK   39  A    between atoms: _95  and  _98
REMARK   40  A    between atoms: _98  and  _99
REMARK   41  A    between atoms: _99  and  _100
REMARK   42  A    between atoms: _103  and  _105
REMARK   43  A    between atoms: _105  and  _106
REMARK   44  A    between atoms: _105  and  _108
REMARK   45  A    between atoms: _111  and  _113
REMARK   46  A    between atoms: _113  and  _114
REMARK   47  A    between atoms: _116  and  _118
REMARK   48  A    between atoms: _118  and  _119
REMARK   49  A    between atoms: _118  and  _121
REMARK   50  A    between atoms: _124  and  _126
REMARK   51  A    between atoms: _126  and  _127
REMARK   52  A    between atoms: _126  and  _129
REMARK   53  A    between atoms: _129  and  _130
REMARK   54  A    between atoms: _136  and  _138
REMARK   55  A    between atoms: _138  and  _139
REMARK   56  A    between atoms: _138  and  _141
REMARK   57  A    between atoms: _144  and  _146
REMARK   58  A    between atoms: _146  and  _147
REMARK   59  A    between atoms: _146  and  _149
REMARK   60  A    between atoms: _149  and  _150
REMARK   61  A    between atoms: _156  and  _158
REMARK   62  A    between atoms: _158  and  _159
REMARK   63  A    between atoms: _158  and  _161
REMARK   64  A    between atoms: _161  and  _162
REMARK   65  A    between atoms: _167  and  _168
REMARK   66  A    between atoms: _170  and  _172
REMARK   67  A    between atoms: _172  and  _173
REMARK   68  A    between atoms: _172  and  _175
REMARK   69  A    between atoms: _175  and  _176
REMARK   70  A    between atoms: _176  and  _177
REMARK   71  A    between atoms: _179  and  _181
REMARK   72  A    between atoms: _181  and  _182
REMARK   73  A    between atoms: _181  and  _184
REMARK   74  A    between atoms: _184  and  _185
REMARK   75  A    between atoms: _190  and  _191
REMARK   76  A    between atoms: _193  and  _195
REMARK   77  A    between atoms: _195  and  _196
REMARK   78  A    between atoms: _195  and  _198
REMARK   79  A    between atoms: _198  and  _199
REMARK   80  A    between atoms: _199  and  _200
REMARK   81  A    between atoms: _200  and  _201
REMARK   82  A    between atoms: _210  and  _212
REMARK   83  A    between atoms: _212  and  _213
REMARK   84  A    between atoms: _212  and  _215
REMARK   85  A    between atoms: _215  and  _216
REMARK   86  A    between atoms: _216  and  _217
REMARK   87  A    between atoms: _220  and  _222
REMARK   88  A    between atoms: _222  and  _223
REMARK   89  A    between atoms: _222  and  _225
REMARK   90  A    between atoms: _225  and  _226
REMARK   91  A    between atoms: _226  and  _227
REMARK   92  A    between atoms: _232  and  _234
REMARK   93  A    between atoms: _234  and  _235
REMARK   94  A    between atoms: _234  and  _237
REMARK   95  A    between atoms: _237  and  _238
REMARK   96  A    between atoms: _238  and  _239
REMARK   97  A    between atoms: _239  and  _240
REMARK   98  A    between atoms: _240  and  _241
REMARK   99  A    between atoms: _245  and  _247
REMARK  100  A    between atoms: _247  and  _248
REMARK  101  A    between atoms: _251  and  _253
REMARK  102  A    between atoms: _253  and  _254
REMARK  103  A    between atoms: _256  and  _258
REMARK  104  A    between atoms: _258  and  _259
REMARK  105  A    between atoms: _258  and  _261
REMARK  106  A    between atoms: _261  and  _262
REMARK  107  A    between atoms: _267  and  _269
REMARK  108  A    between atoms: _269  and  _270
REMARK  109  A    between atoms: _269  and  _272
REMARK  110  A    between atoms: _272  and  _273
REMARK  111  A    between atoms: _273  and  _274
REMARK  112  A    between atoms: _277  and  _279
REMARK  113  A    between atoms: _279  and  _280
REMARK  114  A    between atoms: _279  and  _282
REMARK  115  A    between atoms: _282  and  _283
REMARK  116  A    between atoms: _283  and  _284
REMARK  117  A    between atoms: _289  and  _291
REMARK  118  A    between atoms: _291  and  _292
REMARK  119  A    between atoms: _291  and  _294
REMARK  120  A    between atoms: _294  and  _295
REMARK  121  A    between atoms: _297  and  _299
REMARK  122  A    between atoms: _299  and  _300
REMARK  123  A    between atoms: _299  and  _302
REMARK  124  A    between atoms: _302  and  _303
REMARK  125  A    between atoms: _309  and  _311
REMARK  126  A    between atoms: _311  and  _312
REMARK  127  A    between atoms: _311  and  _314
REMARK  128  A    between atoms: _314  and  _315
REMARK  129  A    between atoms: _315  and  _316
REMARK  130  A    between atoms: _316  and  _317
REMARK  131  A    between atoms: _326  and  _328
REMARK  132  A    between atoms: _328  and  _329
REMARK  133  A    between atoms: _328  and  _331
REMARK  134  A    between atoms: _334  and  _336
REMARK  135  A    between atoms: _336  and  _337
REMARK  136  A    between atoms: _336  and  _339
REMARK  137  A    between atoms: _339  and  _340
REMARK  138  A    between atoms: _343  and  _345
REMARK  139  A    between atoms: _345  and  _346
REMARK  140  A    between atoms: _345  and  _348
REMARK  141  A    between atoms: _348  and  _349
REMARK  142  A    between atoms: _352  and  _354
REMARK  143  A    between atoms: _354  and  _355
REMARK  144  A    between atoms: _354  and  _357
REMARK  145  A    between atoms: _357  and  _358
REMARK  146  A    between atoms: _358  and  _359
REMARK  147  A    between atoms: _359  and  _360
REMARK  148  A    between atoms: _369  and  _371
REMARK  149  A    between atoms: _371  and  _372
REMARK  150  A    between atoms: _371  and  _374
REMARK  151  A    between atoms: _374  and  _375
REMARK  152  A    between atoms: _378  and  _380
REMARK  153  A    between atoms: _380  and  _381
REMARK  154  A    between atoms: _380  and  _383
REMARK  155  A    between atoms: _383  and  _384
REMARK  156  A    between atoms: _387  and  _389
REMARK  157  A    between atoms: _389  and  _390
REMARK  158  A    between atoms: _389  and  _392
REMARK  159  A    between atoms: _392  and  _393
REMARK  160  A    between atoms: _398  and  _399
REMARK  161  A    between atoms: _401  and  _403
REMARK  162  A    between atoms: _403  and  _404
REMARK  163  A    between atoms: _403  and  _406
REMARK  164  A    between atoms: _406  and  _407
REMARK  165  A    between atoms: _412  and  _413
REMARK  166  A    between atoms: _415  and  _417
REMARK  167  A    between atoms: _417  and  _418
REMARK  168  A    between atoms: _417  and  _420
REMARK  169  A    between atoms: _420  and  _421
REMARK  170  A    between atoms: _424  and  _426
REMARK  171  A    between atoms: _426  and  _427
REMARK  172  A    between atoms: _426  and  _429
REMARK  173  A    between atoms: _429  and  _430
REMARK  174  A    between atoms: _430  and  _431
REMARK  175  A    between atoms: _436  and  _438
REMARK  176  A    between atoms: _438  and  _439
REMARK  177  A    between atoms: _438  and  _441
REMARK  178  A    between atoms: _444  and  _446
REMARK  179  A    between atoms: _446  and  _447
REMARK  180  A    between atoms: _446  and  _449
REMARK  181  A    between atoms: _449  and  _450
REMARK  182  A    between atoms: _453  and  _455
REMARK  183  A    between atoms: _455  and  _456
REMARK  184  A    between atoms: _455  and  _458
REMARK  185  A    between atoms: _458  and  _459
REMARK  186  A    between atoms: _461  and  _463
REMARK  187  A    between atoms: _463  and  _464
REMARK  188  A    between atoms: _466  and  _468
REMARK  189  A    between atoms: _468  and  _469
REMARK  190  A    between atoms: _468  and  _471
REMARK  191  A    between atoms: _471  and  _472
REMARK  192  A    between atoms: _472  and  _774
REMARK  193  A    between atoms: _473  and  _475
REMARK  194  A    between atoms: _475  and  _476
REMARK  195  A    between atoms: _475  and  _478
REMARK  196  A    between atoms: _478  and  _479
REMARK  197  A    between atoms: _484  and  _485
REMARK  198  A    between atoms: _487  and  _489
REMARK  199  A    between atoms: _489  and  _490
REMARK  200  A    between atoms: _489  and  _492
REMARK  201  A    between atoms: _492  and  _493
REMARK  202  A    between atoms: _493  and  _494
REMARK  203  A    between atoms: _499  and  _501
REMARK  204  A    between atoms: _501  and  _502
REMARK  205  A    between atoms: _501  and  _504
REMARK  206  A    between atoms: _504  and  _505
REMARK  207  A    between atoms: _505  and  _506
REMARK  208  A    between atoms: _511  and  _513
REMARK  209  A    between atoms: _513  and  _514
REMARK  210  A    between atoms: _513  and  _516
REMARK  211  A    between atoms: _516  and  _517
REMARK  212  A    between atoms: _522  and  _523
REMARK  213  A    between atoms: _525  and  _527
REMARK  214  A    between atoms: _527  and  _528
REMARK  215  A    between atoms: _531  and  _533
REMARK  216  A    between atoms: _533  and  _534
REMARK  217  A    between atoms: _533  and  _536
REMARK  218  A    between atoms: _536  and  _537
REMARK  219  A    between atoms: _542  and  _543
REMARK  220  A    between atoms: _545  and  _547
REMARK  221  A    between atoms: _547  and  _548
REMARK  222  A    between atoms: _547  and  _550
REMARK  223  A    between atoms: _550  and  _551
REMARK  224  A    between atoms: _556  and  _557
REMARK  225  A    between atoms: _559  and  _561
REMARK  226  A    between atoms: _561  and  _562
REMARK  227  A    between atoms: _561  and  _564
REMARK  228  A    between atoms: _564  and  _565
REMARK  229  A    between atoms: _568  and  _570
REMARK  230  A    between atoms: _570  and  _571
REMARK  231  A    between atoms: _574  and  _576
REMARK  232  A    between atoms: _576  and  _577
REMARK  233  A    between atoms: _580  and  _582
REMARK  234  A    between atoms: _582  and  _583
REMARK  235  A    between atoms: _582  and  _585
REMARK  236  A    between atoms: _585  and  _586
REMARK  237  A    between atoms: _589  and  _591
REMARK  238  A    between atoms: _591  and  _592
REMARK  239  A    between atoms: _591  and  _594
REMARK  240  A    between atoms: _594  and  _595
REMARK  241  A    between atoms: _598  and  _600
REMARK  242  A    between atoms: _600  and  _601
REMARK  243  A    between atoms: _600  and  _603
REMARK  244  A    between atoms: _603  and  _604
REMARK  245  A    between atoms: _607  and  _609
REMARK  246  A    between atoms: _609  and  _610
REMARK  247  A    between atoms: _609  and  _612
REMARK  248  A    between atoms: _612  and  _613
REMARK  249  A    between atoms: _613  and  _614
REMARK  250  A    between atoms: _614  and  _615
REMARK  251  A    between atoms: _615  and  _616
REMARK  252  A    between atoms: _620  and  _622
REMARK  253  A    between atoms: _622  and  _623
REMARK  254  A    between atoms: _622  and  _625
REMARK  255  A    between atoms: _625  and  _626
REMARK  256  A    between atoms: _631  and  _633
REMARK  257  A    between atoms: _633  and  _634
REMARK  258  A    between atoms: _633  and  _636
REMARK  259  A    between atoms: _636  and  _637
REMARK  260  A    between atoms: _637  and  _638
REMARK  261  A    between atoms: _638  and  _639
REMARK  262  A    between atoms: _639  and  _640
REMARK  263  A    between atoms: _644  and  _646
REMARK  264  A    between atoms: _646  and  _647
REMARK  265  A    between atoms: _646  and  _649
REMARK  266  A    between atoms: _649  and  _650
REMARK  267  A    between atoms: _660  and  _662
REMARK  268  A    between atoms: _662  and  _663
REMARK  269  A    between atoms: _666  and  _668
REMARK  270  A    between atoms: _668  and  _669
REMARK  271  A    between atoms: _671  and  _673
REMARK  272  A    between atoms: _673  and  _674
REMARK  273  A    between atoms: _673  and  _676
REMARK  274  A    between atoms: _676  and  _677
REMARK  275  A    between atoms: _677  and  _678
REMARK  276  A    between atoms: _681  and  _683
REMARK  277  A    between atoms: _683  and  _684
REMARK  278  A    between atoms: _687  and  _689
REMARK  279  A    between atoms: _689  and  _690
REMARK  280  A    between atoms: _689  and  _692
REMARK  281  A    between atoms: _692  and  _693
REMARK  282  A    between atoms: _693  and  _694
REMARK  283  A    between atoms: _694  and  _695
REMARK  284  A    between atoms: _704  and  _706
REMARK  285  A    between atoms: _706  and  _707
REMARK  286  A    between atoms: _706  and  _709
REMARK  287  A    between atoms: _709  and  _710
REMARK  288  A    between atoms: _713  and  _715
REMARK  289  A    between atoms: _715  and  _716
REMARK  290  A    between atoms: _715  and  _718
REMARK  291  A    between atoms: _718  and  _719
REMARK  292  A    between atoms: _719  and  _720
REMARK  293  A    between atoms: _720  and  _721
REMARK  294  A    between atoms: _730  and  _732
REMARK  295  A    between atoms: _732  and  _733
REMARK  296  A    between atoms: _736  and  _738
REMARK  297  A    between atoms: _738  and  _739
REMARK  298  A    between atoms: _738  and  _741
REMARK  299  A    between atoms: _741  and  _742
REMARK  300  A    between atoms: _747  and  _748
REMARK  301  A    between atoms: _750  and  _752
REMARK  302  A    between atoms: _752  and  _753
REMARK  303  A    between atoms: _752  and  _755
REMARK  304  A    between atoms: _755  and  _756
REMARK  305  A    between atoms: _759  and  _761
REMARK  306  A    between atoms: _761  and  _762
REMARK  307  A    between atoms: _761  and  _764
REMARK  308  A    between atoms: _764  and  _765
REMARK  309  A    between atoms: _768  and  _770
REMARK  310  A    between atoms: _770  and  _771
REMARK  311  A    between atoms: _770  and  _773
REMARK  312  A    between atoms: _773  and  _774
REMARK  313  A    between atoms: _775  and  _777
REMARK  314  A    between atoms: _777  and  _778
REMARK  315  A    between atoms: _777  and  _780
REMARK  316  A    between atoms: _783  and  _785
REMARK  317  A    between atoms: _785  and  _786
REMARK  318  A    between atoms: _785  and  _788
REMARK  319  A    between atoms: _788  and  _789
REMARK  320  A    between atoms: _789  and  _790
REMARK  321  A    between atoms: _793  and  _795
REMARK  322  A    between atoms: _795  and  _796
REMARK  323  A    between atoms: _795  and  _798
REMARK  324  A    between atoms: _798  and  _799
REMARK  325  A    between atoms: _809  and  _811
REMARK  326  A    between atoms: _811  and  _812
REMARK  327  A    between atoms: _811  and  _814
REMARK  328  A    between atoms: _814  and  _815
REMARK  329  A    between atoms: _818  and  _820
REMARK  330  A    between atoms: _820  and  _821
REMARK  331  A    between atoms: _820  and  _823
REMARK  332  A    between atoms: _823  and  _824
REMARK  333  A    between atoms: _829  and  _830
REMARK                            x       y       z     vdW  Elec       q    Type
REMARK                         _______ _______ _______ _____ _____    ______ ____
ROOT
ATOM      1  O   HOH     1     -11.099   3.301  33.206  0.00  0.00    +0.000 OA
ENDROOT
TORSDOF 0
REMARK  Name = ../refined-set-2016/3p9l/3p9l_pocket.pdb
REMARK  333 active torsions:
REMARK  status: ('A' for Active; 'I' for Inactive)
REMARK    1  A    between atoms: _1  and  _3
REMARK    2  A    between atoms: _3  and  _4
REMARK    3  A    between atoms: _3  and  _6
REMARK    4  A    between atoms: _6  and  _7
REMARK    5  A    between atoms: _10  and  _12
REMARK    6  A    between atoms: _12  and  _13
REMARK    7  A    between atoms: _12  and  _15
REMARK    8  A    between atoms: _15  and  _16
REMARK    9  A    between atoms: _16  and  _17
REMARK   10  A    between atoms: _17  and  _18
REMARK   11  A    between atoms: _27  and  _29
REMARK   12  A    between atoms: _29  and  _30
REMARK   13  A    between atoms: _29  and  _32
REMARK   14  A    between atoms: _32  and  _33
REMARK   15  A    between atoms: _38  and  _39
REMARK   16  A    between atoms: _41  and  _43
REMARK   17  A    between atoms: _43  and  _44
REMARK   18  A    between atoms: _43  and  _46
REMARK   19  A    between atoms: _46  and  _47
REMARK   20  A    between atoms: _53  and  _55
REMARK   21  A    between atoms: _55  and  _56
REMARK   22  A    between atoms: _55  and  _58
REMARK   23  A    between atoms: _61  and  _63
REMARK   24  A    between atoms: _63  and  _64
REMARK   25  A    between atoms: _63  and  _66
REMARK   26  A    between atoms: _66  and  _67
REMARK   27  A    between atoms: _70  and  _72
REMARK   28  A    between atoms: _72  and  _73
REMARK   29  A    between atoms: _72  and  _75
REMARK   30  A    between atoms: _75  and  _76
REMARK   31  A    between atoms: _81  and  _82
REMARK   32  A    between atoms: _84  and  _86
REMARK   33  A    between atoms: _86  and  _87
REMARK   34  A    between atoms: _86  and  _89
REMARK   35  A    between atoms: _89  and  _90
REMARK   36  A    between atoms: _90  and  _91
REMARK   37  A    between atoms: _93  and  _95
REMARK   38  A    between atoms: _95  and  _96
REMARK   39  A    between atoms: _95  and  _98
REMARK   40  A    between atoms: _98  and  _99
REMARK   41  A    between atoms: _99  and  _100
REMARK   42  A    between atoms: _103  and  _105
REMARK   43  A    between atoms: _105  and  _106
REMARK   44  A    between atoms: _105  and  _108
REMARK   45  A    between atoms: _111  and  _113
REMARK   46  A    between atoms: _113  and  _114
REMARK   47  A    between atoms: _116  and  _118
REMARK   48  A    between atoms: _118  and  _119
REMARK   49  A    between atoms: _118  and  _121
REMARK   50  A    between atoms: _124  and  _126
REMARK   51  A    between atoms: _126  and  _127
REMARK   52  A    between atoms: _126  and  _129
REMARK   53  A    between atoms: _129  and  _130
REMARK   54  A    between atoms: _136  and  _138
REMARK   55  A    between atoms: _138  and  _139
REMARK   56  A    between atoms: _138  and  _141
REMARK   57  A    between atoms: _144  and  _146
REMARK   58  A    between atoms: _146  and  _147
REMARK   59  A    between atoms: _146  and  _149
REMARK   60  A    between atoms: _149  and  _150
REMARK   61  A    between atoms: _156  and  _158
REMARK   62  A    between atoms: _158  and  _159
REMARK   63  A    between atoms: _158  and  _161
REMARK   64  A    between atoms: _161  and  _162
REMARK   65  A    between atoms: _167  and  _168
REMARK   66  A    between atoms: _170  and  _172
REMARK   67  A    between atoms: _172  and  _173
REMARK   68  A    between atoms: _172  and  _175
REMARK   69  A    between atoms: _175  and  _176
REMARK   70  A    between atoms: _176  and  _177
REMARK   71  A    between atoms: _179  and  _181
REMARK   72  A    between atoms: _181  and  _182
REMARK   73  A    between atoms: _181  and  _184
REMARK   74  A    between atoms: _184  and  _185
REMARK   75  A    between atoms: _190  and  _191
REMARK   76  A    between atoms: _193  and  _195
REMARK   77  A    between atoms: _195  and  _196
REMARK   78  A    between atoms: _195  and  _198
REMARK   79  A    between atoms: _198  and  _199
REMARK   80  A    between atoms: _199  and  _200
REMARK   81  A    between atoms: _200  and  _201
REMARK   82  A    between atoms: _210  and  _212
REMARK   83  A    between atoms: _212  and  _213
REMARK   84  A    between atoms: _212  and  _215
REMARK   85  A    between atoms: _215  and  _216
REMARK   86  A    between atoms: _216  and  _217
REMARK   87  A    between atoms: _220  and  _222
REMARK   88  A    between atoms: _222  and  _223
REMARK   89  A    between atoms: _222  and  _225
REMARK   90  A    between atoms: _225  and  _226
REMARK   91  A    between atoms: _226  and  _227
REMARK   92  A    between atoms: _232  and  _234
REMARK   93  A    between atoms: _234  and  _235
REMARK   94  A    between atoms: _234  and  _237
REMARK   95  A    between atoms: _237  and  _238
REMARK   96  A    between atoms: _238  and  _239
REMARK   97  A    between atoms: _239  and  _240
REMARK   98  A    between atoms: _240  and  _241
REMARK   99  A    between atoms: _245  and  _247
REMARK  100  A    between atoms: _247  and  _248
REMARK  101  A    between atoms: _251  and  _253
REMARK  102  A    between atoms: _253  and  _254
REMARK  103  A    between atoms: _256  and  _258
REMARK  104  A    between atoms: _258  and  _259
REMARK  105  A    between atoms: _258  and  _261
REMARK  106  A    between atoms: _261  and  _262
REMARK  107  A    between atoms: _267  and  _269
REMARK  108  A    between atoms: _269  and  _270
REMARK  109  A    between atoms: _269  and  _272
REMARK  110  A    between atoms: _272  and  _273
REMARK  111  A    between atoms: _273  and  _274
REMARK  112  A    between atoms: _277  and  _279
REMARK  113  A    between atoms: _279  and  _280
REMARK  114  A    between atoms: _279  and  _282
REMARK  115  A    between atoms: _282  and  _283
REMARK  116  A    between atoms: _283  and  _284
REMARK  117  A    between atoms: _289  and  _291
REMARK  118  A    between atoms: _291  and  _292
REMARK  119  A    between atoms: _291  and  _294
REMARK  120  A    between atoms: _294  and  _295
REMARK  121  A    between atoms: _297  and  _299
REMARK  122  A    between atoms: _299  and  _300
REMARK  123  A    between atoms: _299  and  _302
REMARK  124  A    between atoms: _302  and  _303
REMARK  125  A    between atoms: _309  and  _311
REMARK  126  A    between atoms: _311  and  _312
REMARK  127  A    between atoms: _311  and  _314
REMARK  128  A    between atoms: _314  and  _315
REMARK  129  A    between atoms: _315  and  _316
REMARK  130  A    between atoms: _316  and  _317
REMARK  131  A    between atoms: _326  and  _328
REMARK  132  A    between atoms: _328  and  _329
REMARK  133  A    between atoms: _328  and  _331
REMARK  134  A    between atoms: _334  and  _336
REMARK  135  A    between atoms: _336  and  _337
REMARK  136  A    between atoms: _336  and  _339
REMARK  137  A    between atoms: _339  and  _340
REMARK  138  A    between atoms: _343  and  _345
REMARK  139  A    between atoms: _345  and  _346
REMARK  140  A    between atoms: _345  and  _348
REMARK  141  A    between atoms: _348  and  _349
REMARK  142  A    between atoms: _352  and  _354
REMARK  143  A    between atoms: _354  and  _355
REMARK  144  A    between atoms: _354  and  _357
REMARK  145  A    between atoms: _357  and  _358
REMARK  146  A    between atoms: _358  and  _359
REMARK  147  A    between atoms: _359  and  _360
REMARK  148  A    between atoms: _369  and  _371
REMARK  149  A    between atoms: _371  and  _372
REMARK  150  A    between atoms: _371  and  _374
REMARK  151  A    between atoms: _374  and  _375
REMARK  152  A    between atoms: _378  and  _380
REMARK  153  A    between atoms: _380  and  _381
REMARK  154  A    between atoms: _380  and  _383
REMARK  155  A    between atoms: _383  and  _384
REMARK  156  A    between atoms: _387  and  _389
REMARK  157  A    between atoms: _389  and  _390
REMARK  158  A    between atoms: _389  and  _392
REMARK  159  A    between atoms: _392  and  _393
REMARK  160  A    between atoms: _398  and  _399
REMARK  161  A    between atoms: _401  and  _403
REMARK  162  A    between atoms: _403  and  _404
REMARK  163  A    between atoms: _403  and  _406
REMARK  164  A    between atoms: _406  and  _407
REMARK  165  A    between atoms: _412  and  _413
REMARK  166  A    between atoms: _415  and  _417
REMARK  167  A    between atoms: _417  and  _418
REMARK  168  A    between atoms: _417  and  _420
REMARK  169  A    between atoms: _420  and  _421
REMARK  170  A    between atoms: _424  and  _426
REMARK  171  A    between atoms: _426  and  _427
REMARK  172  A    between atoms: _426  and  _429
REMARK  173  A    between atoms: _429  and  _430
REMARK  174  A    between atoms: _430  and  _431
REMARK  175  A    between atoms: _436  and  _438
REMARK  176  A    between atoms: _438  and  _439
REMARK  177  A    between atoms: _438  and  _441
REMARK  178  A    between atoms: _444  and  _446
REMARK  179  A    between atoms: _446  and  _447
REMARK  180  A    between atoms: _446  and  _449
REMARK  181  A    between atoms: _449  and  _450
REMARK  182  A    between atoms: _453  and  _455
REMARK  183  A    between atoms: _455  and  _456
REMARK  184  A    between atoms: _455  and  _458
REMARK  185  A    between atoms: _458  and  _459
REMARK  186  A    between atoms: _461  and  _463
REMARK  187  A    between atoms: _463  and  _464
REMARK  188  A    between atoms: _466  and  _468
REMARK  189  A    between atoms: _468  and  _469
REMARK  190  A    between atoms: _468  and  _471
REMARK  191  A    between atoms: _471  and  _472
REMARK  192  A    between atoms: _472  and  _774
REMARK  193  A    between atoms: _473  and  _475
REMARK  194  A    between atoms: _475  and  _476
REMARK  195  A    between atoms: _475  and  _478
REMARK  196  A    between atoms: _478  and  _479
REMARK  197  A    between atoms: _484  and  _485
REMARK  198  A    between atoms: _487  and  _489
REMARK  199  A    between atoms: _489  and  _490
REMARK  200  A    between atoms: _489  and  _492
REMARK  201  A    between atoms: _492  and  _493
REMARK  202  A    between atoms: _493  and  _494
REMARK  203  A    between atoms: _499  and  _501
REMARK  204  A    between atoms: _501  and  _502
REMARK  205  A    between atoms: _501  and  _504
REMARK  206  A    between atoms: _504  and  _505
REMARK  207  A    between atoms: _505  and  _506
REMARK  208  A    between atoms: _511  and  _513
REMARK  209  A    between atoms: _513  and  _514
REMARK  210  A    between atoms: _513  and  _516
REMARK  211  A    between atoms: _516  and  _517
REMARK  212  A    between atoms: _522  and  _523
REMARK  213  A    between atoms: _525  and  _527
REMARK  214  A    between atoms: _527  and  _528
REMARK  215  A    between atoms: _531  and  _533
REMARK  216  A    between atoms: _533  and  _534
REMARK  217  A    between atoms: _533  and  _536
REMARK  218  A    between atoms: _536  and  _537
REMARK  219  A    between atoms: _542  and  _543
REMARK  220  A    between atoms: _545  and  _547
REMARK  221  A    between atoms: _547  and  _548
REMARK  222  A    between atoms: _547  and  _550
REMARK  223  A    between atoms: _550  and  _551
REMARK  224  A    between atoms: _556  and  _557
REMARK  225  A    between atoms: _559  and  _561
REMARK  226  A    between atoms: _561  and  _562
REMARK  227  A    between atoms: _561  and  _564
REMARK  228  A    between atoms: _564  and  _565
REMARK  229  A    between atoms: _568  and  _570
REMARK  230  A    between atoms: _570  and  _571
REMARK  231  A    between atoms: _574  and  _576
REMARK  232  A    between atoms: _576  and  _577
REMARK  233  A    between atoms: _580  and  _582
REMARK  234  A    between atoms: _582  and  _583
REMARK  235  A    between atoms: _582  and  _585
REMARK  236  A    between atoms: _585  and  _586
REMARK  237  A    between atoms: _589  and  _591
REMARK  238  A    between atoms: _591  and  _592
REMARK  239  A    between atoms: _591  and  _594
REMARK  240  A    between atoms: _594  and  _595
REMARK  241  A    between atoms: _598  and  _600
REMARK  242  A    between atoms: _600  and  _601
REMARK  243  A    between atoms: _600  and  _603
REMARK  244  A    between atoms: _603  and  _604
REMARK  245  A    between atoms: _607  and  _609
REMARK  246  A    between atoms: _609  and  _610
REMARK  247  A    between atoms: _609  and  _612
REMARK  248  A    between atoms: _612  and  _613
REMARK  249  A    between atoms: _613  and  _614
REMARK  250  A    between atoms: _614  and  _615
REMARK  251  A    between atoms: _615  and  _616
REMARK  252  A    between atoms: _620  and  _622
REMARK  253  A    between atoms: _622  and  _623
REMARK  254  A    between atoms: _622  and  _625
REMARK  255  A    between atoms: _625  and  _626
REMARK  256  A    between atoms: _631  and  _633
REMARK  257  A    between atoms: _633  and  _634
REMARK  258  A    between atoms: _633  and  _636
REMARK  259  A    between atoms: _636  and  _637
REMARK  260  A    between atoms: _637  and  _638
REMARK  261  A    between atoms: _638  and  _639
REMARK  262  A    between atoms: _639  and  _640
REMARK  263  A    between atoms: _644  and  _646
REMARK  264  A    between atoms: _646  and  _647
REMARK  265  A    between atoms: _646  and  _649
REMARK  266  A    between atoms: _649  and  _650
REMARK  267  A    between atoms: _660  and  _662
REMARK  268  A    between atoms: _662  and  _663
REMARK  269  A    between atoms: _666  and  _668
REMARK  270  A    between atoms: _668  and  _669
REMARK  271  A    between atoms: _671  and  _673
REMARK  272  A    between atoms: _673  and  _674
REMARK  273  A    between atoms: _673  and  _676
REMARK  274  A    between atoms: _676  and  _677
REMARK  275  A    between atoms: _677  and  _678
REMARK  276  A    between atoms: _681  and  _683
REMARK  277  A    between atoms: _683  and  _684
REMARK  278  A    between atoms: _687  and  _689
REMARK  279  A    between atoms: _689  and  _690
REMARK  280  A    between atoms: _689  and  _692
REMARK  281  A    between atoms: _692  and  _693
REMARK  282  A    between atoms: _693  and  _694
REMARK  283  A    between atoms: _694  and  _695
REMARK  284  A    between atoms: _704  and  _706
REMARK  285  A    between atoms: _706  and  _707
REMARK  286  A    between atoms: _706  and  _709
REMARK  287  A    between atoms: _709  and  _710
REMARK  288  A    between atoms: _713  and  _715
REMARK  289  A    between atoms: _715  and  _716
REMARK  290  A    between atoms: _715  and  _718
REMARK  291  A    between atoms: _718  and  _719
REMARK  292  A    between atoms: _719  and  _720
REMARK  293  A    between atoms: _720  and  _721
REMARK  294  A    between atoms: _730  and  _732
REMARK  295  A    between atoms: _732  and  _733
REMARK  296  A    between atoms: _736  and  _738
REMARK  297  A    between atoms: _738  and  _739
REMARK  298  A    between atoms: _738  and  _741
REMARK  299  A    between atoms: _741  and  _742
REMARK  300  A    between atoms: _747  and  _748
REMARK  301  A    between atoms: _750  and  _752
REMARK  302  A    between atoms: _752  and  _753
REMARK  303  A    between atoms: _752  and  _755
REMARK  304  A    between atoms: _755  and  _756
REMARK  305  A    between atoms: _759  and  _761
REMARK  306  A    between atoms: _761  and  _762
REMARK  307  A    between atoms: _761  and  _764
REMARK  308  A    between atoms: _764  and  _765
REMARK  309  A    between atoms: _768  and  _770
REMARK  310  A    between atoms: _770  and  _771
REMARK  311  A    between atoms: _770  and  _773
REMARK  312  A    between atoms: _773  and  _774
REMARK  313  A    between atoms: _775  and  _777
REMARK  314  A    between atoms: _777  and  _778
REMARK  315  A    between atoms: _777  and  _780
REMARK  316  A    between atoms: _783  and  _785
REMARK  317  A    between atoms: _785  and  _786
REMARK  318  A    between atoms: _785  and  _788
REMARK  319  A    between atoms: _788  and  _789
REMARK  320  A    between atoms: _789  and  _790
REMARK  321  A    between atoms: _793  and  _795
REMARK  322  A    between atoms: _795  and  _796
REMARK  323  A    between atoms: _795  and  _798
REMARK  324  A    between atoms: _798  and  _799
REMARK  325  A    between atoms: _809  and  _811
REMARK  326  A    between atoms: _811  and  _812
REMARK  327  A    between atoms: _811  and  _814
REMARK  328  A    between atoms: _814  and  _815
REMARK  329  A    between atoms: _818  and  _820
REMARK  330  A    between atoms: _820  and  _821
REMARK  331  A    between atoms: _820  and  _823
REMARK  332  A    between atoms: _823  and  _824
REMARK  333  A    between atoms: _829  and  _830
REMARK                            x       y       z     vdW  Elec       q    Type
REMARK                         _______ _______ _______ _____ _____    ______ ____
ROOT
ATOM      1  O   HOH     1     -16.413   3.097  40.762  0.00  0.00    +0.000 OA
ENDROOT
TORSDOF 0
REMARK  Name = ../refined-set-2016/3p9l/3p9l_pocket.pdb
REMARK  333 active torsions:
REMARK  status: ('A' for Active; 'I' for Inactive)
REMARK    1  A    between atoms: _1  and  _3
REMARK    2  A    between atoms: _3  and  _4
REMARK    3  A    between atoms: _3  and  _6
REMARK    4  A    between atoms: _6  and  _7
REMARK    5  A    between atoms: _10  and  _12
REMARK    6  A    between atoms: _12  and  _13
REMARK    7  A    between atoms: _12  and  _15
REMARK    8  A    between atoms: _15  and  _16
REMARK    9  A    between atoms: _16  and  _17
REMARK   10  A    between atoms: _17  and  _18
REMARK   11  A    between atoms: _27  and  _29
REMARK   12  A    between atoms: _29  and  _30
REMARK   13  A    between atoms: _29  and  _32
REMARK   14  A    between atoms: _32  and  _33
REMARK   15  A    between atoms: _38  and  _39
REMARK   16  A    between atoms: _41  and  _43
REMARK   17  A    between atoms: _43  and  _44
REMARK   18  A    between atoms: _43  and  _46
REMARK   19  A    between atoms: _46  and  _47
REMARK   20  A    between atoms: _53  and  _55
REMARK   21  A    between atoms: _55  and  _56
REMARK   22  A    between atoms: _55  and  _58
REMARK   23  A    between atoms: _61  and  _63
REMARK   24  A    between atoms: _63  and  _64
REMARK   25  A    between atoms: _63  and  _66
REMARK   26  A    between atoms: _66  and  _67
REMARK   27  A    between atoms: _70  and  _72
REMARK   28  A    between atoms: _72  and  _73
REMARK   29  A    between atoms: _72  and  _75
REMARK   30  A    between atoms: _75  and  _76
REMARK   31  A    between atoms: _81  and  _82
REMARK   32  A    between atoms: _84  and  _86
REMARK   33  A    between atoms: _86  and  _87
REMARK   34  A    between atoms: _86  and  _89
REMARK   35  A    between atoms: _89  and  _90
REMARK   36  A    between atoms: _90  and  _91
REMARK   37  A    between atoms: _93  and  _95
REMARK   38  A    between atoms: _95  and  _96
REMARK   39  A    between atoms: _95  and  _98
REMARK   40  A    between atoms: _98  and  _99
REMARK   41  A    between atoms: _99  and  _100
REMARK   42  A    between atoms: _103  and  _105
REMARK   43  A    between atoms: _105  and  _106
REMARK   44  A    between atoms: _105  and  _108
REMARK   45  A    between atoms: _111  and  _113
REMARK   46  A    between atoms: _113  and  _114
REMARK   47  A    between atoms: _116  and  _118
REMARK   48  A    between atoms: _118  and  _119
REMARK   49  A    between atoms: _118  and  _121
REMARK   50  A    between atoms: _124  and  _126
REMARK   51  A    between atoms: _126  and  _127
REMARK   52  A    between atoms: _126  and  _129
REMARK   53  A    between atoms: _129  and  _130
REMARK   54  A    between atoms: _136  and  _138
REMARK   55  A    between atoms: _138  and  _139
REMARK   56  A    between atoms: _138  and  _141
REMARK   57  A    between atoms: _144  and  _146
REMARK   58  A    between atoms: _146  and  _147
REMARK   59  A    between atoms: _146  and  _149
REMARK   60  A    between atoms: _149  and  _150
REMARK   61  A    between atoms: _156  and  _158
REMARK   62  A    between atoms: _158  and  _159
REMARK   63  A    between atoms: _158  and  _161
REMARK   64  A    between atoms: _161  and  _162
REMARK   65  A    between atoms: _167  and  _168
REMARK   66  A    between atoms: _170  and  _172
REMARK   67  A    between atoms: _172  and  _173
REMARK   68  A    between atoms: _172  and  _175
REMARK   69  A    between atoms: _175  and  _176
REMARK   70  A    between atoms: _176  and  _177
REMARK   71  A    between atoms: _179  and  _181
REMARK   72  A    between atoms: _181  and  _182
REMARK   73  A    between atoms: _181  and  _184
REMARK   74  A    between atoms: _184  and  _185
REMARK   75  A    between atoms: _190  and  _191
REMARK   76  A    between atoms: _193  and  _195
REMARK   77  A    between atoms: _195  and  _196
REMARK   78  A    between atoms: _195  and  _198
REMARK   79  A    between atoms: _198  and  _199
REMARK   80  A    between atoms: _199  and  _200
REMARK   81  A    between atoms: _200  and  _201
REMARK   82  A    between atoms: _210  and  _212
REMARK   83  A    between atoms: _212  and  _213
REMARK   84  A    between atoms: _212  and  _215
REMARK   85  A    between atoms: _215  and  _216
REMARK   86  A    between atoms: _216  and  _217
REMARK   87  A    between atoms: _220  and  _222
REMARK   88  A    between atoms: _222  and  _223
REMARK   89  A    between atoms: _222  and  _225
REMARK   90  A    between atoms: _225  and  _226
REMARK   91  A    between atoms: _226  and  _227
REMARK   92  A    between atoms: _232  and  _234
REMARK   93  A    between atoms: _234  and  _235
REMARK   94  A    between atoms: _234  and  _237
REMARK   95  A    between atoms: _237  and  _238
REMARK   96  A    between atoms: _238  and  _239
REMARK   97  A    between atoms: _239  and  _240
REMARK   98  A    between atoms: _240  and  _241
REMARK   99  A    between atoms: _245  and  _247
REMARK  100  A    between atoms: _247  and  _248
REMARK  101  A    between atoms: _251  and  _253
REMARK  102  A    between atoms: _253  and  _254
REMARK  103  A    between atoms: _256  and  _258
REMARK  104  A    between atoms: _258  and  _259
REMARK  105  A    between atoms: _258  and  _261
REMARK  106  A    between atoms: _261  and  _262
REMARK  107  A    between atoms: _267  and  _269
REMARK  108  A    between atoms: _269  and  _270
REMARK  109  A    between atoms: _269  and  _272
REMARK  110  A    between atoms: _272  and  _273
REMARK  111  A    between atoms: _273  and  _274
REMARK  112  A    between atoms: _277  and  _279
REMARK  113  A    between atoms: _279  and  _280
REMARK  114  A    between atoms: _279  and  _282
REMARK  115  A    between atoms: _282  and  _283
REMARK  116  A    between atoms: _283  and  _284
REMARK  117  A    between atoms: _289  and  _291
REMARK  118  A    between atoms: _291  and  _292
REMARK  119  A    between atoms: _291  and  _294
REMARK  120  A    between atoms: _294  and  _295
REMARK  121  A    between atoms: _297  and  _299
REMARK  122  A    between atoms: _299  and  _300
REMARK  123  A    between atoms: _299  and  _302
REMARK  124  A    between atoms: _302  and  _303
REMARK  125  A    between atoms: _309  and  _311
REMARK  126  A    between atoms: _311  and  _312
REMARK  127  A    between atoms: _311  and  _314
REMARK  128  A    between atoms: _314  and  _315
REMARK  129  A    between atoms: _315  and  _316
REMARK  130  A    between atoms: _316  and  _317
REMARK  131  A    between atoms: _326  and  _328
REMARK  132  A    between atoms: _328  and  _329
REMARK  133  A    between atoms: _328  and  _331
REMARK  134  A    between atoms: _334  and  _336
REMARK  135  A    between atoms: _336  and  _337
REMARK  136  A    between atoms: _336  and  _339
REMARK  137  A    between atoms: _339  and  _340
REMARK  138  A    between atoms: _343  and  _345
REMARK  139  A    between atoms: _345  and  _346
REMARK  140  A    between atoms: _345  and  _348
REMARK  141  A    between atoms: _348  and  _349
REMARK  142  A    between atoms: _352  and  _354
REMARK  143  A    between atoms: _354  and  _355
REMARK  144  A    between atoms: _354  and  _357
REMARK  145  A    between atoms: _357  and  _358
REMARK  146  A    between atoms: _358  and  _359
REMARK  147  A    between atoms: _359  and  _360
REMARK  148  A    between atoms: _369  and  _371
REMARK  149  A    between atoms: _371  and  _372
REMARK  150  A    between atoms: _371  and  _374
REMARK  151  A    between atoms: _374  and  _375
REMARK  152  A    between atoms: _378  and  _380
REMARK  153  A    between atoms: _380  and  _381
REMARK  154  A    between atoms: _380  and  _383
REMARK  155  A    between atoms: _383  and  _384
REMARK  156  A    between atoms: _387  and  _389
REMARK  157  A    between atoms: _389  and  _390
REMARK  158  A    between atoms: _389  and  _392
REMARK  159  A    between atoms: _392  and  _393
REMARK  160  A    between atoms: _398  and  _399
REMARK  161  A    between atoms: _401  and  _403
REMARK  162  A    between atoms: _403  and  _404
REMARK  163  A    between atoms: _403  and  _406
REMARK  164  A    between atoms: _406  and  _407
REMARK  165  A    between atoms: _412  and  _413
REMARK  166  A    between atoms: _415  and  _417
REMARK  167  A    between atoms: _417  and  _418
REMARK  168  A    between atoms: _417  and  _420
REMARK  169  A    between atoms: _420  and  _421
REMARK  170  A    between atoms: _424  and  _426
REMARK  171  A    between atoms: _426  and  _427
REMARK  172  A    between atoms: _426  and  _429
REMARK  173  A    between atoms: _429  and  _430
REMARK  174  A    between atoms: _430  and  _431
REMARK  175  A    between atoms: _436  and  _438
REMARK  176  A    between atoms: _438  and  _439
REMARK  177  A    between atoms: _438  and  _441
REMARK  178  A    between atoms: _444  and  _446
REMARK  179  A    between atoms: _446  and  _447
REMARK  180  A    between atoms: _446  and  _449
REMARK  181  A    between atoms: _449  and  _450
REMARK  182  A    between atoms: _453  and  _455
REMARK  183  A    between atoms: _455  and  _456
REMARK  184  A    between atoms: _455  and  _458
REMARK  185  A    between atoms: _458  and  _459
REMARK  186  A    between atoms: _461  and  _463
REMARK  187  A    between atoms: _463  and  _464
REMARK  188  A    between atoms: _466  and  _468
REMARK  189  A    between atoms: _468  and  _469
REMARK  190  A    between atoms: _468  and  _471
REMARK  191  A    between atoms: _471  and  _472
REMARK  192  A    between atoms: _472  and  _774
REMARK  193  A    between atoms: _473  and  _475
REMARK  194  A    between atoms: _475  and  _476
REMARK  195  A    between atoms: _475  and  _478
REMARK  196  A    between atoms: _478  and  _479
REMARK  197  A    between atoms: _484  and  _485
REMARK  198  A    between atoms: _487  and  _489
REMARK  199  A    between atoms: _489  and  _490
REMARK  200  A    between atoms: _489  and  _492
REMARK  201  A    between atoms: _492  and  _493
REMARK  202  A    between atoms: _493  and  _494
REMARK  203  A    between atoms: _499  and  _501
REMARK  204  A    between atoms: _501  and  _502
REMARK  205  A    between atoms: _501  and  _504
REMARK  206  A    between atoms: _504  and  _505
REMARK  207  A    between atoms: _505  and  _506
REMARK  208  A    between atoms: _511  and  _513
REMARK  209  A    between atoms: _513  and  _514
REMARK  210  A    between atoms: _513  and  _516
REMARK  211  A    between atoms: _516  and  _517
REMARK  212  A    between atoms: _522  and  _523
REMARK  213  A    between atoms: _525  and  _527
REMARK  214  A    between atoms: _527  and  _528
REMARK  215  A    between atoms: _531  and  _533
REMARK  216  A    between atoms: _533  and  _534
REMARK  217  A    between atoms: _533  and  _536
REMARK  218  A    between atoms: _536  and  _537
REMARK  219  A    between atoms: _542  and  _543
REMARK  220  A    between atoms: _545  and  _547
REMARK  221  A    between atoms: _547  and  _548
REMARK  222  A    between atoms: _547  and  _550
REMARK  223  A    between atoms: _550  and  _551
REMARK  224  A    between atoms: _556  and  _557
REMARK  225  A    between atoms: _559  and  _561
REMARK  226  A    between atoms: _561  and  _562
REMARK  227  A    between atoms: _561  and  _564
REMARK  228  A    between atoms: _564  and  _565
REMARK  229  A    between atoms: _568  and  _570
REMARK  230  A    between atoms: _570  and  _571
REMARK  231  A    between atoms: _574  and  _576
REMARK  232  A    between atoms: _576  and  _577
REMARK  233  A    between atoms: _580  and  _582
REMARK  234  A    between atoms: _582  and  _583
REMARK  235  A    between atoms: _582  and  _585
REMARK  236  A    between atoms: _585  and  _586
REMARK  237  A    between atoms: _589  and  _591
REMARK  238  A    between atoms: _591  and  _592
REMARK  239  A    between atoms: _591  and  _594
REMARK  240  A    between atoms: _594  and  _595
REMARK  241  A    between atoms: _598  and  _600
REMARK  242  A    between atoms: _600  and  _601
REMARK  243  A    between atoms: _600  and  _603
REMARK  244  A    between atoms: _603  and  _604
REMARK  245  A    between atoms: _607  and  _609
REMARK  246  A    between atoms: _609  and  _610
REMARK  247  A    between atoms: _609  and  _612
REMARK  248  A    between atoms: _612  and  _613
REMARK  249  A    between atoms: _613  and  _614
REMARK  250  A    between atoms: _614  and  _615
REMARK  251  A    between atoms: _615  and  _616
REMARK  252  A    between atoms: _620  and  _622
REMARK  253  A    between atoms: _622  and  _623
REMARK  254  A    between atoms: _622  and  _625
REMARK  255  A    between atoms: _625  and  _626
REMARK  256  A    between atoms: _631  and  _633
REMARK  257  A    between atoms: _633  and  _634
REMARK  258  A    between atoms: _633  and  _636
REMARK  259  A    between atoms: _636  and  _637
REMARK  260  A    between atoms: _637  and  _638
REMARK  261  A    between atoms: _638  and  _639
REMARK  262  A    between atoms: _639  and  _640
REMARK  263  A    between atoms: _644  and  _646
REMARK  264  A    between atoms: _646  and  _647
REMARK  265  A    between atoms: _646  and  _649
REMARK  266  A    between atoms: _649  and  _650
REMARK  267  A    between atoms: _660  and  _662
REMARK  268  A    between atoms: _662  and  _663
REMARK  269  A    between atoms: _666  and  _668
REMARK  270  A    between atoms: _668  and  _669
REMARK  271  A    between atoms: _671  and  _673
REMARK  272  A    between atoms: _673  and  _674
REMARK  273  A    between atoms: _673  and  _676
REMARK  274  A    between atoms: _676  and  _677
REMARK  275  A    between atoms: _677  and  _678
REMARK  276  A    between atoms: _681  and  _683
REMARK  277  A    between atoms: _683  and  _684
REMARK  278  A    between atoms: _687  and  _689
REMARK  279  A    between atoms: _689  and  _690
REMARK  280  A    between atoms: _689  and  _692
REMARK  281  A    between atoms: _692  and  _693
REMARK  282  A    between atoms: _693  and  _694
REMARK  283  A    between atoms: _694  and  _695
REMARK  284  A    between atoms: _704  and  _706
REMARK  285  A    between atoms: _706  and  _707
REMARK  286  A    between atoms: _706  and  _709
REMARK  287  A    between atoms: _709  and  _710
REMARK  288  A    between atoms: _713  and  _715
REMARK  289  A    between atoms: _715  and  _716
REMARK  290  A    between atoms: _715  and  _718
REMARK  291  A    between atoms: _718  and  _719
REMARK  292  A    between atoms: _719  and  _720
REMARK  293  A    between atoms: _720  and  _721
REMARK  294  A    between atoms: _730  and  _732
REMARK  295  A    between atoms: _732  and  _733
REMARK  296  A    between atoms: _736  and  _738
REMARK  297  A    between atoms: _738  and  _739
REMARK  298  A    between atoms: _738  and  _741
REMARK  299  A    between atoms: _741  and  _742
REMARK  300  A    between atoms: _747  and  _748
REMARK  301  A    between atoms: _750  and  _752
REMARK  302  A    between atoms: _752  and  _753
REMARK  303  A    between atoms: _752  and  _755
REMARK  304  A    between atoms: _755  and  _756
REMARK  305  A    between atoms: _759  and  _761
REMARK  306  A    between atoms: _761  and  _762
REMARK  307  A    between atoms: _761  and  _764
REMARK  308  A    between atoms: _764  and  _765
REMARK  309  A    between atoms: _768  and  _770
REMARK  310  A    between atoms: _770  and  _771
REMARK  311  A    between atoms: _770  and  _773
REMARK  312  A    between atoms: _773  and  _774
REMARK  313  A    between atoms: _775  and  _777
REMARK  314  A    between atoms: _777  and  _778
REMARK  315  A    between atoms: _777  and  _780
REMARK  316  A    between atoms: _783  and  _785
REMARK  317  A    between atoms: _785  and  _786
REMARK  318  A    between atoms: _785  and  _788
REMARK  319  A    between atoms: _788  and  _789
REMARK  320  A    between atoms: _789  and  _790
REMARK  321  A    between atoms: _793  and  _795
REMARK  322  A    between atoms: _795  and  _796
REMARK  323  A    between atoms: _795  and  _798
REMARK  324  A    between atoms: _798  and  _799
REMARK  325  A    between atoms: _809  and  _811
REMARK  326  A    between atoms: _811  and  _812
REMARK  327  A    between atoms: _811  and  _814
REMARK  328  A    between atoms: _814  and  _815
REMARK  329  A    between atoms: _818  and  _820
REMARK  330  A    between atoms: _820  and  _821
REMARK  331  A    between atoms: _820  and  _823
REMARK  332  A    between atoms: _823  and  _824
REMARK  333  A    between atoms: _829  and  _830
REMARK                            x       y       z     vdW  Elec       q    Type
REMARK                         _______ _______ _______ _____ _____    ______ ____
ROOT
ATOM      1  O   HOH     1     -20.996   6.447  29.689  0.00  0.00    +0.000 OA
ENDROOT
TORSDOF 0
REMARK  Name = ../refined-set-2016/3p9l/3p9l_pocket.pdb
REMARK  333 active torsions:
REMARK  status: ('A' for Active; 'I' for Inactive)
REMARK    1  A    between atoms: _1  and  _3
REMARK    2  A    between atoms: _3  and  _4
REMARK    3  A    between atoms: _3  and  _6
REMARK    4  A    between atoms: _6  and  _7
REMARK    5  A    between atoms: _10  and  _12
REMARK    6  A    between atoms: _12  and  _13
REMARK    7  A    between atoms: _12  and  _15
REMARK    8  A    between atoms: _15  and  _16
REMARK    9  A    between atoms: _16  and  _17
REMARK   10  A    between atoms: _17  and  _18
REMARK   11  A    between atoms: _27  and  _29
REMARK   12  A    between atoms: _29  and  _30
REMARK   13  A    between atoms: _29  and  _32
REMARK   14  A    between atoms: _32  and  _33
REMARK   15  A    between atoms: _38  and  _39
REMARK   16  A    between atoms: _41  and  _43
REMARK   17  A    between atoms: _43  and  _44
REMARK   18  A    between atoms: _43  and  _46
REMARK   19  A    between atoms: _46  and  _47
REMARK   20  A    between atoms: _53  and  _55
REMARK   21  A    between atoms: _55  and  _56
REMARK   22  A    between atoms: _55  and  _58
REMARK   23  A    between atoms: _61  and  _63
REMARK   24  A    between atoms: _63  and  _64
REMARK   25  A    between atoms: _63  and  _66
REMARK   26  A    between atoms: _66  and  _67
REMARK   27  A    between atoms: _70  and  _72
REMARK   28  A    between atoms: _72  and  _73
REMARK   29  A    between atoms: _72  and  _75
REMARK   30  A    between atoms: _75  and  _76
REMARK   31  A    between atoms: _81  and  _82
REMARK   32  A    between atoms: _84  and  _86
REMARK   33  A    between atoms: _86  and  _87
REMARK   34  A    between atoms: _86  and  _89
REMARK   35  A    between atoms: _89  and  _90
REMARK   36  A    between atoms: _90  and  _91
REMARK   37  A    between atoms: _93  and  _95
REMARK   38  A    between atoms: _95  and  _96
REMARK   39  A    between atoms: _95  and  _98
REMARK   40  A    between atoms: _98  and  _99
REMARK   41  A    between atoms: _99  and  _100
REMARK   42  A    between atoms: _103  and  _105
REMARK   43  A    between atoms: _105  and  _106
REMARK   44  A    between atoms: _105  and  _108
REMARK   45  A    between atoms: _111  and  _113
REMARK   46  A    between atoms: _113  and  _114
REMARK   47  A    between atoms: _116  and  _118
REMARK   48  A    between atoms: _118  and  _119
REMARK   49  A    between atoms: _118  and  _121
REMARK   50  A    between atoms: _124  and  _126
REMARK   51  A    between atoms: _126  and  _127
REMARK   52  A    between atoms: _126  and  _129
REMARK   53  A    between atoms: _129  and  _130
REMARK   54  A    between atoms: _136  and  _138
REMARK   55  A    between atoms: _138  and  _139
REMARK   56  A    between atoms: _138  and  _141
REMARK   57  A    between atoms: _144  and  _146
REMARK   58  A    between atoms: _146  and  _147
REMARK   59  A    between atoms: _146  and  _149
REMARK   60  A    between atoms: _149  and  _150
REMARK   61  A    between atoms: _156  and  _158
REMARK   62  A    between atoms: _158  and  _159
REMARK   63  A    between atoms: _158  and  _161
REMARK   64  A    between atoms: _161  and  _162
REMARK   65  A    between atoms: _167  and  _168
REMARK   66  A    between atoms: _170  and  _172
REMARK   67  A    between atoms: _172  and  _173
REMARK   68  A    between atoms: _172  and  _175
REMARK   69  A    between atoms: _175  and  _176
REMARK   70  A    between atoms: _176  and  _177
REMARK   71  A    between atoms: _179  and  _181
REMARK   72  A    between atoms: _181  and  _182
REMARK   73  A    between atoms: _181  and  _184
REMARK   74  A    between atoms: _184  and  _185
REMARK   75  A    between atoms: _190  and  _191
REMARK   76  A    between atoms: _193  and  _195
REMARK   77  A    between atoms: _195  and  _196
REMARK   78  A    between atoms: _195  and  _198
REMARK   79  A    between atoms: _198  and  _199
REMARK   80  A    between atoms: _199  and  _200
REMARK   81  A    between atoms: _200  and  _201
REMARK   82  A    between atoms: _210  and  _212
REMARK   83  A    between atoms: _212  and  _213
REMARK   84  A    between atoms: _212  and  _215
REMARK   85  A    between atoms: _215  and  _216
REMARK   86  A    between atoms: _216  and  _217
REMARK   87  A    between atoms: _220  and  _222
REMARK   88  A    between atoms: _222  and  _223
REMARK   89  A    between atoms: _222  and  _225
REMARK   90  A    between atoms: _225  and  _226
REMARK   91  A    between atoms: _226  and  _227
REMARK   92  A    between atoms: _232  and  _234
REMARK   93  A    between atoms: _234  and  _235
REMARK   94  A    between atoms: _234  and  _237
REMARK   95  A    between atoms: _237  and  _238
REMARK   96  A    between atoms: _238  and  _239
REMARK   97  A    between atoms: _239  and  _240
REMARK   98  A    between atoms: _240  and  _241
REMARK   99  A    between atoms: _245  and  _247
REMARK  100  A    between atoms: _247  and  _248
REMARK  101  A    between atoms: _251  and  _253
REMARK  102  A    between atoms: _253  and  _254
REMARK  103  A    between atoms: _256  and  _258
REMARK  104  A    between atoms: _258  and  _259
REMARK  105  A    between atoms: _258  and  _261
REMARK  106  A    between atoms: _261  and  _262
REMARK  107  A    between atoms: _267  and  _269
REMARK  108  A    between atoms: _269  and  _270
REMARK  109  A    between atoms: _269  and  _272
REMARK  110  A    between atoms: _272  and  _273
REMARK  111  A    between atoms: _273  and  _274
REMARK  112  A    between atoms: _277  and  _279
REMARK  113  A    between atoms: _279  and  _280
REMARK  114  A    between atoms: _279  and  _282
REMARK  115  A    between atoms: _282  and  _283
REMARK  116  A    between atoms: _283  and  _284
REMARK  117  A    between atoms: _289  and  _291
REMARK  118  A    between atoms: _291  and  _292
REMARK  119  A    between atoms: _291  and  _294
REMARK  120  A    between atoms: _294  and  _295
REMARK  121  A    between atoms: _297  and  _299
REMARK  122  A    between atoms: _299  and  _300
REMARK  123  A    between atoms: _299  and  _302
REMARK  124  A    between atoms: _302  and  _303
REMARK  125  A    between atoms: _309  and  _311
REMARK  126  A    between atoms: _311  and  _312
REMARK  127  A    between atoms: _311  and  _314
REMARK  128  A    between atoms: _314  and  _315
REMARK  129  A    between atoms: _315  and  _316
REMARK  130  A    between atoms: _316  and  _317
REMARK  131  A    between atoms: _326  and  _328
REMARK  132  A    between atoms: _328  and  _329
REMARK  133  A    between atoms: _328  and  _331
REMARK  134  A    between atoms: _334  and  _336
REMARK  135  A    between atoms: _336  and  _337
REMARK  136  A    between atoms: _336  and  _339
REMARK  137  A    between atoms: _339  and  _340
REMARK  138  A    between atoms: _343  and  _345
REMARK  139  A    between atoms: _345  and  _346
REMARK  140  A    between atoms: _345  and  _348
REMARK  141  A    between atoms: _348  and  _349
REMARK  142  A    between atoms: _352  and  _354
REMARK  143  A    between atoms: _354  and  _355
REMARK  144  A    between atoms: _354  and  _357
REMARK  145  A    between atoms: _357  and  _358
REMARK  146  A    between atoms: _358  and  _359
REMARK  147  A    between atoms: _359  and  _360
REMARK  148  A    between atoms: _369  and  _371
REMARK  149  A    between atoms: _371  and  _372
REMARK  150  A    between atoms: _371  and  _374
REMARK  151  A    between atoms: _374  and  _375
REMARK  152  A    between atoms: _378  and  _380
REMARK  153  A    between atoms: _380  and  _381
REMARK  154  A    between atoms: _380  and  _383
REMARK  155  A    between atoms: _383  and  _384
REMARK  156  A    between atoms: _387  and  _389
REMARK  157  A    between atoms: _389  and  _390
REMARK  158  A    between atoms: _389  and  _392
REMARK  159  A    between atoms: _392  and  _393
REMARK  160  A    between atoms: _398  and  _399
REMARK  161  A    between atoms: _401  and  _403
REMARK  162  A    between atoms: _403  and  _404
REMARK  163  A    between atoms: _403  and  _406
REMARK  164  A    between atoms: _406  and  _407
REMARK  165  A    between atoms: _412  and  _413
REMARK  166  A    between atoms: _415  and  _417
REMARK  167  A    between atoms: _417  and  _418
REMARK  168  A    between atoms: _417  and  _420
REMARK  169  A    between atoms: _420  and  _421
REMARK  170  A    between atoms: _424  and  _426
REMARK  171  A    between atoms: _426  and  _427
REMARK  172  A    between atoms: _426  and  _429
REMARK  173  A    between atoms: _429  and  _430
REMARK  174  A    between atoms: _430  and  _431
REMARK  175  A    between atoms: _436  and  _438
REMARK  176  A    between atoms: _438  and  _439
REMARK  177  A    between atoms: _438  and  _441
REMARK  178  A    between atoms: _444  and  _446
REMARK  179  A    between atoms: _446  and  _447
REMARK  180  A    between atoms: _446  and  _449
REMARK  181  A    between atoms: _449  and  _450
REMARK  182  A    between atoms: _453  and  _455
REMARK  183  A    between atoms: _455  and  _456
REMARK  184  A    between atoms: _455  and  _458
REMARK  185  A    between atoms: _458  and  _459
REMARK  186  A    between atoms: _461  and  _463
REMARK  187  A    between atoms: _463  and  _464
REMARK  188  A    between atoms: _466  and  _468
REMARK  189  A    between atoms: _468  and  _469
REMARK  190  A    between atoms: _468  and  _471
REMARK  191  A    between atoms: _471  and  _472
REMARK  192  A    between atoms: _472  and  _774
REMARK  193  A    between atoms: _473  and  _475
REMARK  194  A    between atoms: _475  and  _476
REMARK  195  A    between atoms: _475  and  _478
REMARK  196  A    between atoms: _478  and  _479
REMARK  197  A    between atoms: _484  and  _485
REMARK  198  A    between atoms: _487  and  _489
REMARK  199  A    between atoms: _489  and  _490
REMARK  200  A    between atoms: _489  and  _492
REMARK  201  A    between atoms: _492  and  _493
REMARK  202  A    between atoms: _493  and  _494
REMARK  203  A    between atoms: _499  and  _501
REMARK  204  A    between atoms: _501  and  _502
REMARK  205  A    between atoms: _501  and  _504
REMARK  206  A    between atoms: _504  and  _505
REMARK  207  A    between atoms: _505  and  _506
REMARK  208  A    between atoms: _511  and  _513
REMARK  209  A    between atoms: _513  and  _514
REMARK  210  A    between atoms: _513  and  _516
REMARK  211  A    between atoms: _516  and  _517
REMARK  212  A    between atoms: _522  and  _523
REMARK  213  A    between atoms: _525  and  _527
REMARK  214  A    between atoms: _527  and  _528
REMARK  215  A    between atoms: _531  and  _533
REMARK  216  A    between atoms: _533  and  _534
REMARK  217  A    between atoms: _533  and  _536
REMARK  218  A    between atoms: _536  and  _537
REMARK  219  A    between atoms: _542  and  _543
REMARK  220  A    between atoms: _545  and  _547
REMARK  221  A    between atoms: _547  and  _548
REMARK  222  A    between atoms: _547  and  _550
REMARK  223  A    between atoms: _550  and  _551
REMARK  224  A    between atoms: _556  and  _557
REMARK  225  A    between atoms: _559  and  _561
REMARK  226  A    between atoms: _561  and  _562
REMARK  227  A    between atoms: _561  and  _564
REMARK  228  A    between atoms: _564  and  _565
REMARK  229  A    between atoms: _568  and  _570
REMARK  230  A    between atoms: _570  and  _571
REMARK  231  A    between atoms: _574  and  _576
REMARK  232  A    between atoms: _576  and  _577
REMARK  233  A    between atoms: _580  and  _582
REMARK  234  A    between atoms: _582  and  _583
REMARK  235  A    between atoms: _582  and  _585
REMARK  236  A    between atoms: _585  and  _586
REMARK  237  A    between atoms: _589  and  _591
REMARK  238  A    between atoms: _591  and  _592
REMARK  239  A    between atoms: _591  and  _594
REMARK  240  A    between atoms: _594  and  _595
REMARK  241  A    between atoms: _598  and  _600
REMARK  242  A    between atoms: _600  and  _601
REMARK  243  A    between atoms: _600  and  _603
REMARK  244  A    between atoms: _603  and  _604
REMARK  245  A    between atoms: _607  and  _609
REMARK  246  A    between atoms: _609  and  _610
REMARK  247  A    between atoms: _609  and  _612
REMARK  248  A    between atoms: _612  and  _613
REMARK  249  A    between atoms: _613  and  _614
REMARK  250  A    between atoms: _614  and  _615
REMARK  251  A    between atoms: _615  and  _616
REMARK  252  A    between atoms: _620  and  _622
REMARK  253  A    between atoms: _622  and  _623
REMARK  254  A    between atoms: _622  and  _625
REMARK  255  A    between atoms: _625  and  _626
REMARK  256  A    between atoms: _631  and  _633
REMARK  257  A    between atoms: _633  and  _634
REMARK  258  A    between atoms: _633  and  _636
REMARK  259  A    between atoms: _636  and  _637
REMARK  260  A    between atoms: _637  and  _638
REMARK  261  A    between atoms: _638  and  _639
REMARK  262  A    between atoms: _639  and  _640
REMARK  263  A    between atoms: _644  and  _646
REMARK  264  A    between atoms: _646  and  _647
REMARK  265  A    between atoms: _646  and  _649
REMARK  266  A    between atoms: _649  and  _650
REMARK  267  A    between atoms: _660  and  _662
REMARK  268  A    between atoms: _662  and  _663
REMARK  269  A    between atoms: _666  and  _668
REMARK  270  A    between atoms: _668  and  _669
REMARK  271  A    between atoms: _671  and  _673
REMARK  272  A    between atoms: _673  and  _674
REMARK  273  A    between atoms: _673  and  _676
REMARK  274  A    between atoms: _676  and  _677
REMARK  275  A    between atoms: _677  and  _678
REMARK  276  A    between atoms: _681  and  _683
REMARK  277  A    between atoms: _683  and  _684
REMARK  278  A    between atoms: _687  and  _689
REMARK  279  A    between atoms: _689  and  _690
REMARK  280  A    between atoms: _689  and  _692
REMARK  281  A    between atoms: _692  and  _693
REMARK  282  A    between atoms: _693  and  _694
REMARK  283  A    between atoms: _694  and  _695
REMARK  284  A    between atoms: _704  and  _706
REMARK  285  A    between atoms: _706  and  _707
REMARK  286  A    between atoms: _706  and  _709
REMARK  287  A    between atoms: _709  and  _710
REMARK  288  A    between atoms: _713  and  _715
REMARK  289  A    between atoms: _715  and  _716
REMARK  290  A    between atoms: _715  and  _718
REMARK  291  A    between atoms: _718  and  _719
REMARK  292  A    between atoms: _719  and  _720
REMARK  293  A    between atoms: _720  and  _721
REMARK  294  A    between atoms: _730  and  _732
REMARK  295  A    between atoms: _732  and  _733
REMARK  296  A    between atoms: _736  and  _738
REMARK  297  A    between atoms: _738  and  _739
REMARK  298  A    between atoms: _738  and  _741
REMARK  299  A    between atoms: _741  and  _742
REMARK  300  A    between atoms: _747  and  _748
REMARK  301  A    between atoms: _750  and  _752
REMARK  302  A    between atoms: _752  and  _753
REMARK  303  A    between atoms: _752  and  _755
REMARK  304  A    between atoms: _755  and  _756
REMARK  305  A    between atoms: _759  and  _761
REMARK  306  A    between atoms: _761  and  _762
REMARK  307  A    between atoms: _761  and  _764
REMARK  308  A    between atoms: _764  and  _765
REMARK  309  A    between atoms: _768  and  _770
REMARK  310  A    between atoms: _770  and  _771
REMARK  311  A    between atoms: _770  and  _773
REMARK  312  A    between atoms: _773  and  _774
REMARK  313  A    between atoms: _775  and  _777
REMARK  314  A    between atoms: _777  and  _778
REMARK  315  A    between atoms: _777  and  _780
REMARK  316  A    between atoms: _783  and  _785
REMARK  317  A    between atoms: _785  and  _786
REMARK  318  A    between atoms: _785  and  _788
REMARK  319  A    between atoms: _788  and  _789
REMARK  320  A    between atoms: _789  and  _790
REMARK  321  A    between atoms: _793  and  _795
REMARK  322  A    between atoms: _795  and  _796
REMARK  323  A    between atoms: _795  and  _798
REMARK  324  A    between atoms: _798  and  _799
REMARK  325  A    between atoms: _809  and  _811
REMARK  326  A    between atoms: _811  and  _812
REMARK  327  A    between atoms: _811  and  _814
REMARK  328  A    between atoms: _814  and  _815
REMARK  329  A    between atoms: _818  and  _820
REMARK  330  A    between atoms: _820  and  _821
REMARK  331  A    between atoms: _820  and  _823
REMARK  332  A    between atoms: _823  and  _824
REMARK  333  A    between atoms: _829  and  _830
REMARK                            x       y       z     vdW  Elec       q    Type
REMARK                         _______ _______ _______ _____ _____    ______ ____
ROOT
ATOM      1  O   HOH     1     -20.539  16.795  25.990  0.00  0.00    +0.000 OA
ENDROOT
TORSDOF 0
REMARK  Name = ../refined-set-2016/3p9l/3p9l_pocket.pdb
REMARK  333 active torsions:
REMARK  status: ('A' for Active; 'I' for Inactive)
REMARK    1  A    between atoms: _1  and  _3
REMARK    2  A    between atoms: _3  and  _4
REMARK    3  A    between atoms: _3  and  _6
REMARK    4  A    between atoms: _6  and  _7
REMARK    5  A    between atoms: _10  and  _12
REMARK    6  A    between atoms: _12  and  _13
REMARK    7  A    between atoms: _12  and  _15
REMARK    8  A    between atoms: _15  and  _16
REMARK    9  A    between atoms: _16  and  _17
REMARK   10  A    between atoms: _17  and  _18
REMARK   11  A    between atoms: _27  and  _29
REMARK   12  A    between atoms: _29  and  _30
REMARK   13  A    between atoms: _29  and  _32
REMARK   14  A    between atoms: _32  and  _33
REMARK   15  A    between atoms: _38  and  _39
REMARK   16  A    between atoms: _41  and  _43
REMARK   17  A    between atoms: _43  and  _44
REMARK   18  A    between atoms: _43  and  _46
REMARK   19  A    between atoms: _46  and  _47
REMARK   20  A    between atoms: _53  and  _55
REMARK   21  A    between atoms: _55  and  _56
REMARK   22  A    between atoms: _55  and  _58
REMARK   23  A    between atoms: _61  and  _63
REMARK   24  A    between atoms: _63  and  _64
REMARK   25  A    between atoms: _63  and  _66
REMARK   26  A    between atoms: _66  and  _67
REMARK   27  A    between atoms: _70  and  _72
REMARK   28  A    between atoms: _72  and  _73
REMARK   29  A    between atoms: _72  and  _75
REMARK   30  A    between atoms: _75  and  _76
REMARK   31  A    between atoms: _81  and  _82
REMARK   32  A    between atoms: _84  and  _86
REMARK   33  A    between atoms: _86  and  _87
REMARK   34  A    between atoms: _86  and  _89
REMARK   35  A    between atoms: _89  and  _90
REMARK   36  A    between atoms: _90  and  _91
REMARK   37  A    between atoms: _93  and  _95
REMARK   38  A    between atoms: _95  and  _96
REMARK   39  A    between atoms: _95  and  _98
REMARK   40  A    between atoms: _98  and  _99
REMARK   41  A    between atoms: _99  and  _100
REMARK   42  A    between atoms: _103  and  _105
REMARK   43  A    between atoms: _105  and  _106
REMARK   44  A    between atoms: _105  and  _108
REMARK   45  A    between atoms: _111  and  _113
REMARK   46  A    between atoms: _113  and  _114
REMARK   47  A    between atoms: _116  and  _118
REMARK   48  A    between atoms: _118  and  _119
REMARK   49  A    between atoms: _118  and  _121
REMARK   50  A    between atoms: _124  and  _126
REMARK   51  A    between atoms: _126  and  _127
REMARK   52  A    between atoms: _126  and  _129
REMARK   53  A    between atoms: _129  and  _130
REMARK   54  A    between atoms: _136  and  _138
REMARK   55  A    between atoms: _138  and  _139
REMARK   56  A    between atoms: _138  and  _141
REMARK   57  A    between atoms: _144  and  _146
REMARK   58  A    between atoms: _146  and  _147
REMARK   59  A    between atoms: _146  and  _149
REMARK   60  A    between atoms: _149  and  _150
REMARK   61  A    between atoms: _156  and  _158
REMARK   62  A    between atoms: _158  and  _159
REMARK   63  A    between atoms: _158  and  _161
REMARK   64  A    between atoms: _161  and  _162
REMARK   65  A    between atoms: _167  and  _168
REMARK   66  A    between atoms: _170  and  _172
REMARK   67  A    between atoms: _172  and  _173
REMARK   68  A    between atoms: _172  and  _175
REMARK   69  A    between atoms: _175  and  _176
REMARK   70  A    between atoms: _176  and  _177
REMARK   71  A    between atoms: _179  and  _181
REMARK   72  A    between atoms: _181  and  _182
REMARK   73  A    between atoms: _181  and  _184
REMARK   74  A    between atoms: _184  and  _185
REMARK   75  A    between atoms: _190  and  _191
REMARK   76  A    between atoms: _193  and  _195
REMARK   77  A    between atoms: _195  and  _196
REMARK   78  A    between atoms: _195  and  _198
REMARK   79  A    between atoms: _198  and  _199
REMARK   80  A    between atoms: _199  and  _200
REMARK   81  A    between atoms: _200  and  _201
REMARK   82  A    between atoms: _210  and  _212
REMARK   83  A    between atoms: _212  and  _213
REMARK   84  A    between atoms: _212  and  _215
REMARK   85  A    between atoms: _215  and  _216
REMARK   86  A    between atoms: _216  and  _217
REMARK   87  A    between atoms: _220  and  _222
REMARK   88  A    between atoms: _222  and  _223
REMARK   89  A    between atoms: _222  and  _225
REMARK   90  A    between atoms: _225  and  _226
REMARK   91  A    between atoms: _226  and  _227
REMARK   92  A    between atoms: _232  and  _234
REMARK   93  A    between atoms: _234  and  _235
REMARK   94  A    between atoms: _234  and  _237
REMARK   95  A    between atoms: _237  and  _238
REMARK   96  A    between atoms: _238  and  _239
REMARK   97  A    between atoms: _239  and  _240
REMARK   98  A    between atoms: _240  and  _241
REMARK   99  A    between atoms: _245  and  _247
REMARK  100  A    between atoms: _247  and  _248
REMARK  101  A    between atoms: _251  and  _253
REMARK  102  A    between atoms: _253  and  _254
REMARK  103  A    between atoms: _256  and  _258
REMARK  104  A    between atoms: _258  and  _259
REMARK  105  A    between atoms: _258  and  _261
REMARK  106  A    between atoms: _261  and  _262
REMARK  107  A    between atoms: _267  and  _269
REMARK  108  A    between atoms: _269  and  _270
REMARK  109  A    between atoms: _269  and  _272
REMARK  110  A    between atoms: _272  and  _273
REMARK  111  A    between atoms: _273  and  _274
REMARK  112  A    between atoms: _277  and  _279
REMARK  113  A    between atoms: _279  and  _280
REMARK  114  A    between atoms: _279  and  _282
REMARK  115  A    between atoms: _282  and  _283
REMARK  116  A    between atoms: _283  and  _284
REMARK  117  A    between atoms: _289  and  _291
REMARK  118  A    between atoms: _291  and  _292
REMARK  119  A    between atoms: _291  and  _294
REMARK  120  A    between atoms: _294  and  _295
REMARK  121  A    between atoms: _297  and  _299
REMARK  122  A    between atoms: _299  and  _300
REMARK  123  A    between atoms: _299  and  _302
REMARK  124  A    between atoms: _302  and  _303
REMARK  125  A    between atoms: _309  and  _311
REMARK  126  A    between atoms: _311  and  _312
REMARK  127  A    between atoms: _311  and  _314
REMARK  128  A    between atoms: _314  and  _315
REMARK  129  A    between atoms: _315  and  _316
REMARK  130  A    between atoms: _316  and  _317
REMARK  131  A    between atoms: _326  and  _328
REMARK  132  A    between atoms: _328  and  _329
REMARK  133  A    between atoms: _328  and  _331
REMARK  134  A    between atoms: _334  and  _336
REMARK  135  A    between atoms: _336  and  _337
REMARK  136  A    between atoms: _336  and  _339
REMARK  137  A    between atoms: _339  and  _340
REMARK  138  A    between atoms: _343  and  _345
REMARK  139  A    between atoms: _345  and  _346
REMARK  140  A    between atoms: _345  and  _348
REMARK  141  A    between atoms: _348  and  _349
REMARK  142  A    between atoms: _352  and  _354
REMARK  143  A    between atoms: _354  and  _355
REMARK  144  A    between atoms: _354  and  _357
REMARK  145  A    between atoms: _357  and  _358
REMARK  146  A    between atoms: _358  and  _359
REMARK  147  A    between atoms: _359  and  _360
REMARK  148  A    between atoms: _369  and  _371
REMARK  149  A    between atoms: _371  and  _372
REMARK  150  A    between atoms: _371  and  _374
REMARK  151  A    between atoms: _374  and  _375
REMARK  152  A    between atoms: _378  and  _380
REMARK  153  A    between atoms: _380  and  _381
REMARK  154  A    between atoms: _380  and  _383
REMARK  155  A    between atoms: _383  and  _384
REMARK  156  A    between atoms: _387  and  _389
REMARK  157  A    between atoms: _389  and  _390
REMARK  158  A    between atoms: _389  and  _392
REMARK  159  A    between atoms: _392  and  _393
REMARK  160  A    between atoms: _398  and  _399
REMARK  161  A    between atoms: _401  and  _403
REMARK  162  A    between atoms: _403  and  _404
REMARK  163  A    between atoms: _403  and  _406
REMARK  164  A    between atoms: _406  and  _407
REMARK  165  A    between atoms: _412  and  _413
REMARK  166  A    between atoms: _415  and  _417
REMARK  167  A    between atoms: _417  and  _418
REMARK  168  A    between atoms: _417  and  _420
REMARK  169  A    between atoms: _420  and  _421
REMARK  170  A    between atoms: _424  and  _426
REMARK  171  A    between atoms: _426  and  _427
REMARK  172  A    between atoms: _426  and  _429
REMARK  173  A    between atoms: _429  and  _430
REMARK  174  A    between atoms: _430  and  _431
REMARK  175  A    between atoms: _436  and  _438
REMARK  176  A    between atoms: _438  and  _439
REMARK  177  A    between atoms: _438  and  _441
REMARK  178  A    between atoms: _444  and  _446
REMARK  179  A    between atoms: _446  and  _447
REMARK  180  A    between atoms: _446  and  _449
REMARK  181  A    between atoms: _449  and  _450
REMARK  182  A    between atoms: _453  and  _455
REMARK  183  A    between atoms: _455  and  _456
REMARK  184  A    between atoms: _455  and  _458
REMARK  185  A    between atoms: _458  and  _459
REMARK  186  A    between atoms: _461  and  _463
REMARK  187  A    between atoms: _463  and  _464
REMARK  188  A    between atoms: _466  and  _468
REMARK  189  A    between atoms: _468  and  _469
REMARK  190  A    between atoms: _468  and  _471
REMARK  191  A    between atoms: _471  and  _472
REMARK  192  A    between atoms: _472  and  _774
REMARK  193  A    between atoms: _473  and  _475
REMARK  194  A    between atoms: _475  and  _476
REMARK  195  A    between atoms: _475  and  _478
REMARK  196  A    between atoms: _478  and  _479
REMARK  197  A    between atoms: _484  and  _485
REMARK  198  A    between atoms: _487  and  _489
REMARK  199  A    between atoms: _489  and  _490
REMARK  200  A    between atoms: _489  and  _492
REMARK  201  A    between atoms: _492  and  _493
REMARK  202  A    between atoms: _493  and  _494
REMARK  203  A    between atoms: _499  and  _501
REMARK  204  A    between atoms: _501  and  _502
REMARK  205  A    between atoms: _501  and  _504
REMARK  206  A    between atoms: _504  and  _505
REMARK  207  A    between atoms: _505  and  _506
REMARK  208  A    between atoms: _511  and  _513
REMARK  209  A    between atoms: _513  and  _514
REMARK  210  A    between atoms: _513  and  _516
REMARK  211  A    between atoms: _516  and  _517
REMARK  212  A    between atoms: _522  and  _523
REMARK  213  A    between atoms: _525  and  _527
REMARK  214  A    between atoms: _527  and  _528
REMARK  215  A    between atoms: _531  and  _533
REMARK  216  A    between atoms: _533  and  _534
REMARK  217  A    between atoms: _533  and  _536
REMARK  218  A    between atoms: _536  and  _537
REMARK  219  A    between atoms: _542  and  _543
REMARK  220  A    between atoms: _545  and  _547
REMARK  221  A    between atoms: _547  and  _548
REMARK  222  A    between atoms: _547  and  _550
REMARK  223  A    between atoms: _550  and  _551
REMARK  224  A    between atoms: _556  and  _557
REMARK  225  A    between atoms: _559  and  _561
REMARK  226  A    between atoms: _561  and  _562
REMARK  227  A    between atoms: _561  and  _564
REMARK  228  A    between atoms: _564  and  _565
REMARK  229  A    between atoms: _568  and  _570
REMARK  230  A    between atoms: _570  and  _571
REMARK  231  A    between atoms: _574  and  _576
REMARK  232  A    between atoms: _576  and  _577
REMARK  233  A    between atoms: _580  and  _582
REMARK  234  A    between atoms: _582  and  _583
REMARK  235  A    between atoms: _582  and  _585
REMARK  236  A    between atoms: _585  and  _586
REMARK  237  A    between atoms: _589  and  _591
REMARK  238  A    between atoms: _591  and  _592
REMARK  239  A    between atoms: _591  and  _594
REMARK  240  A    between atoms: _594  and  _595
REMARK  241  A    between atoms: _598  and  _600
REMARK  242  A    between atoms: _600  and  _601
REMARK  243  A    between atoms: _600  and  _603
REMARK  244  A    between atoms: _603  and  _604
REMARK  245  A    between atoms: _607  and  _609
REMARK  246  A    between atoms: _609  and  _610
REMARK  247  A    between atoms: _609  and  _612
REMARK  248  A    between atoms: _612  and  _613
REMARK  249  A    between atoms: _613  and  _614
REMARK  250  A    between atoms: _614  and  _615
REMARK  251  A    between atoms: _615  and  _616
REMARK  252  A    between atoms: _620  and  _622
REMARK  253  A    between atoms: _622  and  _623
REMARK  254  A    between atoms: _622  and  _625
REMARK  255  A    between atoms: _625  and  _626
REMARK  256  A    between atoms: _631  and  _633
REMARK  257  A    between atoms: _633  and  _634
REMARK  258  A    between atoms: _633  and  _636
REMARK  259  A    between atoms: _636  and  _637
REMARK  260  A    between atoms: _637  and  _638
REMARK  261  A    between atoms: _638  and  _639
REMARK  262  A    between atoms: _639  and  _640
REMARK  263  A    between atoms: _644  and  _646
REMARK  264  A    between atoms: _646  and  _647
REMARK  265  A    between atoms: _646  and  _649
REMARK  266  A    between atoms: _649  and  _650
REMARK  267  A    between atoms: _660  and  _662
REMARK  268  A    between atoms: _662  and  _663
REMARK  269  A    between atoms: _666  and  _668
REMARK  270  A    between atoms: _668  and  _669
REMARK  271  A    between atoms: _671  and  _673
REMARK  272  A    between atoms: _673  and  _674
REMARK  273  A    between atoms: _673  and  _676
REMARK  274  A    between atoms: _676  and  _677
REMARK  275  A    between atoms: _677  and  _678
REMARK  276  A    between atoms: _681  and  _683
REMARK  277  A    between atoms: _683  and  _684
REMARK  278  A    between atoms: _687  and  _689
REMARK  279  A    between atoms: _689  and  _690
REMARK  280  A    between atoms: _689  and  _692
REMARK  281  A    between atoms: _692  and  _693
REMARK  282  A    between atoms: _693  and  _694
REMARK  283  A    between atoms: _694  and  _695
REMARK  284  A    between atoms: _704  and  _706
REMARK  285  A    between atoms: _706  and  _707
REMARK  286  A    between atoms: _706  and  _709
REMARK  287  A    between atoms: _709  and  _710
REMARK  288  A    between atoms: _713  and  _715
REMARK  289  A    between atoms: _715  and  _716
REMARK  290  A    between atoms: _715  and  _718
REMARK  291  A    between atoms: _718  and  _719
REMARK  292  A    between atoms: _719  and  _720
REMARK  293  A    between atoms: _720  and  _721
REMARK  294  A    between atoms: _730  and  _732
REMARK  295  A    between atoms: _732  and  _733
REMARK  296  A    between atoms: _736  and  _738
REMARK  297  A    between atoms: _738  and  _739
REMARK  298  A    between atoms: _738  and  _741
REMARK  299  A    between atoms: _741  and  _742
REMARK  300  A    between atoms: _747  and  _748
REMARK  301  A    between atoms: _750  and  _752
REMARK  302  A    between atoms: _752  and  _753
REMARK  303  A    between atoms: _752  and  _755
REMARK  304  A    between atoms: _755  and  _756
REMARK  305  A    between atoms: _759  and  _761
REMARK  306  A    between atoms: _761  and  _762
REMARK  307  A    between atoms: _761  and  _764
REMARK  308  A    between atoms: _764  and  _765
REMARK  309  A    between atoms: _768  and  _770
REMARK  310  A    between atoms: _770  and  _771
REMARK  311  A    between atoms: _770  and  _773
REMARK  312  A    between atoms: _773  and  _774
REMARK  313  A    between atoms: _775  and  _777
REMARK  314  A    between atoms: _777  and  _778
REMARK  315  A    between atoms: _777  and  _780
REMARK  316  A    between atoms: _783  and  _785
REMARK  317  A    between atoms: _785  and  _786
REMARK  318  A    between atoms: _785  and  _788
REMARK  319  A    between atoms: _788  and  _789
REMARK  320  A    between atoms: _789  and  _790
REMARK  321  A    between atoms: _793  and  _795
REMARK  322  A    between atoms: _795  and  _796
REMARK  323  A    between atoms: _795  and  _798
REMARK  324  A    between atoms: _798  and  _799
REMARK  325  A    between atoms: _809  and  _811
REMARK  326  A    between atoms: _811  and  _812
REMARK  327  A    between atoms: _811  and  _814
REMARK  328  A    between atoms: _814  and  _815
REMARK  329  A    between atoms: _818  and  _820
REMARK  330  A    between atoms: _820  and  _821
REMARK  331  A    between atoms: _820  and  _823
REMARK  332  A    between atoms: _823  and  _824
REMARK  333  A    between atoms: _829  and  _830
REMARK                            x       y       z     vdW  Elec       q    Type
REMARK                         _______ _______ _______ _____ _____    ______ ____
ROOT
ATOM      1  O   HOH     1     -18.504  10.784  27.285  0.00  0.00    +0.000 OA
ENDROOT
TORSDOF 0
REMARK  Name = ../refined-set-2016/3p9l/3p9l_pocket.pdb
REMARK  333 active torsions:
REMARK  status: ('A' for Active; 'I' for Inactive)
REMARK    1  A    between atoms: _1  and  _3
REMARK    2  A    between atoms: _3  and  _4
REMARK    3  A    between atoms: _3  and  _6
REMARK    4  A    between atoms: _6  and  _7
REMARK    5  A    between atoms: _10  and  _12
REMARK    6  A    between atoms: _12  and  _13
REMARK    7  A    between atoms: _12  and  _15
REMARK    8  A    between atoms: _15  and  _16
REMARK    9  A    between atoms: _16  and  _17
REMARK   10  A    between atoms: _17  and  _18
REMARK   11  A    between atoms: _27  and  _29
REMARK   12  A    between atoms: _29  and  _30
REMARK   13  A    between atoms: _29  and  _32
REMARK   14  A    between atoms: _32  and  _33
REMARK   15  A    between atoms: _38  and  _39
REMARK   16  A    between atoms: _41  and  _43
REMARK   17  A    between atoms: _43  and  _44
REMARK   18  A    between atoms: _43  and  _46
REMARK   19  A    between atoms: _46  and  _47
REMARK   20  A    between atoms: _53  and  _55
REMARK   21  A    between atoms: _55  and  _56
REMARK   22  A    between atoms: _55  and  _58
REMARK   23  A    between atoms: _61  and  _63
REMARK   24  A    between atoms: _63  and  _64
REMARK   25  A    between atoms: _63  and  _66
REMARK   26  A    between atoms: _66  and  _67
REMARK   27  A    between atoms: _70  and  _72
REMARK   28  A    between atoms: _72  and  _73
REMARK   29  A    between atoms: _72  and  _75
REMARK   30  A    between atoms: _75  and  _76
REMARK   31  A    between atoms: _81  and  _82
REMARK   32  A    between atoms: _84  and  _86
REMARK   33  A    between atoms: _86  and  _87
REMARK   34  A    between atoms: _86  and  _89
REMARK   35  A    between atoms: _89  and  _90
REMARK   36  A    between atoms: _90  and  _91
REMARK   37  A    between atoms: _93  and  _95
REMARK   38  A    between atoms: _95  and  _96
REMARK   39  A    between atoms: _95  and  _98
REMARK   40  A    between atoms: _98  and  _99
REMARK   41  A    between atoms: _99  and  _100
REMARK   42  A    between atoms: _103  and  _105
REMARK   43  A    between atoms: _105  and  _106
REMARK   44  A    between atoms: _105  and  _108
REMARK   45  A    between atoms: _111  and  _113
REMARK   46  A    between atoms: _113  and  _114
REMARK   47  A    between atoms: _116  and  _118
REMARK   48  A    between atoms: _118  and  _119
REMARK   49  A    between atoms: _118  and  _121
REMARK   50  A    between atoms: _124  and  _126
REMARK   51  A    between atoms: _126  and  _127
REMARK   52  A    between atoms: _126  and  _129
REMARK   53  A    between atoms: _129  and  _130
REMARK   54  A    between atoms: _136  and  _138
REMARK   55  A    between atoms: _138  and  _139
REMARK   56  A    between atoms: _138  and  _141
REMARK   57  A    between atoms: _144  and  _146
REMARK   58  A    between atoms: _146  and  _147
REMARK   59  A    between atoms: _146  and  _149
REMARK   60  A    between atoms: _149  and  _150
REMARK   61  A    between atoms: _156  and  _158
REMARK   62  A    between atoms: _158  and  _159
REMARK   63  A    between atoms: _158  and  _161
REMARK   64  A    between atoms: _161  and  _162
REMARK   65  A    between atoms: _167  and  _168
REMARK   66  A    between atoms: _170  and  _172
REMARK   67  A    between atoms: _172  and  _173
REMARK   68  A    between atoms: _172  and  _175
REMARK   69  A    between atoms: _175  and  _176
REMARK   70  A    between atoms: _176  and  _177
REMARK   71  A    between atoms: _179  and  _181
REMARK   72  A    between atoms: _181  and  _182
REMARK   73  A    between atoms: _181  and  _184
REMARK   74  A    between atoms: _184  and  _185
REMARK   75  A    between atoms: _190  and  _191
REMARK   76  A    between atoms: _193  and  _195
REMARK   77  A    between atoms: _195  and  _196
REMARK   78  A    between atoms: _195  and  _198
REMARK   79  A    between atoms: _198  and  _199
REMARK   80  A    between atoms: _199  and  _200
REMARK   81  A    between atoms: _200  and  _201
REMARK   82  A    between atoms: _210  and  _212
REMARK   83  A    between atoms: _212  and  _213
REMARK   84  A    between atoms: _212  and  _215
REMARK   85  A    between atoms: _215  and  _216
REMARK   86  A    between atoms: _216  and  _217
REMARK   87  A    between atoms: _220  and  _222
REMARK   88  A    between atoms: _222  and  _223
REMARK   89  A    between atoms: _222  and  _225
REMARK   90  A    between atoms: _225  and  _226
REMARK   91  A    between atoms: _226  and  _227
REMARK   92  A    between atoms: _232  and  _234
REMARK   93  A    between atoms: _234  and  _235
REMARK   94  A    between atoms: _234  and  _237
REMARK   95  A    between atoms: _237  and  _238
REMARK   96  A    between atoms: _238  and  _239
REMARK   97  A    between atoms: _239  and  _240
REMARK   98  A    between atoms: _240  and  _241
REMARK   99  A    between atoms: _245  and  _247
REMARK  100  A    between atoms: _247  and  _248
REMARK  101  A    between atoms: _251  and  _253
REMARK  102  A    between atoms: _253  and  _254
REMARK  103  A    between atoms: _256  and  _258
REMARK  104  A    between atoms: _258  and  _259
REMARK  105  A    between atoms: _258  and  _261
REMARK  106  A    between atoms: _261  and  _262
REMARK  107  A    between atoms: _267  and  _269
REMARK  108  A    between atoms: _269  and  _270
REMARK  109  A    between atoms: _269  and  _272
REMARK  110  A    between atoms: _272  and  _273
REMARK  111  A    between atoms: _273  and  _274
REMARK  112  A    between atoms: _277  and  _279
REMARK  113  A    between atoms: _279  and  _280
REMARK  114  A    between atoms: _279  and  _282
REMARK  115  A    between atoms: _282  and  _283
REMARK  116  A    between atoms: _283  and  _284
REMARK  117  A    between atoms: _289  and  _291
REMARK  118  A    between atoms: _291  and  _292
REMARK  119  A    between atoms: _291  and  _294
REMARK  120  A    between atoms: _294  and  _295
REMARK  121  A    between atoms: _297  and  _299
REMARK  122  A    between atoms: _299  and  _300
REMARK  123  A    between atoms: _299  and  _302
REMARK  124  A    between atoms: _302  and  _303
REMARK  125  A    between atoms: _309  and  _311
REMARK  126  A    between atoms: _311  and  _312
REMARK  127  A    between atoms: _311  and  _314
REMARK  128  A    between atoms: _314  and  _315
REMARK  129  A    between atoms: _315  and  _316
REMARK  130  A    between atoms: _316  and  _317
REMARK  131  A    between atoms: _326  and  _328
REMARK  132  A    between atoms: _328  and  _329
REMARK  133  A    between atoms: _328  and  _331
REMARK  134  A    between atoms: _334  and  _336
REMARK  135  A    between atoms: _336  and  _337
REMARK  136  A    between atoms: _336  and  _339
REMARK  137  A    between atoms: _339  and  _340
REMARK  138  A    between atoms: _343  and  _345
REMARK  139  A    between atoms: _345  and  _346
REMARK  140  A    between atoms: _345  and  _348
REMARK  141  A    between atoms: _348  and  _349
REMARK  142  A    between atoms: _352  and  _354
REMARK  143  A    between atoms: _354  and  _355
REMARK  144  A    between atoms: _354  and  _357
REMARK  145  A    between atoms: _357  and  _358
REMARK  146  A    between atoms: _358  and  _359
REMARK  147  A    between atoms: _359  and  _360
REMARK  148  A    between atoms: _369  and  _371
REMARK  149  A    between atoms: _371  and  _372
REMARK  150  A    between atoms: _371  and  _374
REMARK  151  A    between atoms: _374  and  _375
REMARK  152  A    between atoms: _378  and  _380
REMARK  153  A    between atoms: _380  and  _381
REMARK  154  A    between atoms: _380  and  _383
REMARK  155  A    between atoms: _383  and  _384
REMARK  156  A    between atoms: _387  and  _389
REMARK  157  A    between atoms: _389  and  _390
REMARK  158  A    between atoms: _389  and  _392
REMARK  159  A    between atoms: _392  and  _393
REMARK  160  A    between atoms: _398  and  _399
REMARK  161  A    between atoms: _401  and  _403
REMARK  162  A    between atoms: _403  and  _404
REMARK  163  A    between atoms: _403  and  _406
REMARK  164  A    between atoms: _406  and  _407
REMARK  165  A    between atoms: _412  and  _413
REMARK  166  A    between atoms: _415  and  _417
REMARK  167  A    between atoms: _417  and  _418
REMARK  168  A    between atoms: _417  and  _420
REMARK  169  A    between atoms: _420  and  _421
REMARK  170  A    between atoms: _424  and  _426
REMARK  171  A    between atoms: _426  and  _427
REMARK  172  A    between atoms: _426  and  _429
REMARK  173  A    between atoms: _429  and  _430
REMARK  174  A    between atoms: _430  and  _431
REMARK  175  A    between atoms: _436  and  _438
REMARK  176  A    between atoms: _438  and  _439
REMARK  177  A    between atoms: _438  and  _441
REMARK  178  A    between atoms: _444  and  _446
REMARK  179  A    between atoms: _446  and  _447
REMARK  180  A    between atoms: _446  and  _449
REMARK  181  A    between atoms: _449  and  _450
REMARK  182  A    between atoms: _453  and  _455
REMARK  183  A    between atoms: _455  and  _456
REMARK  184  A    between atoms: _455  and  _458
REMARK  185  A    between atoms: _458  and  _459
REMARK  186  A    between atoms: _461  and  _463
REMARK  187  A    between atoms: _463  and  _464
REMARK  188  A    between atoms: _466  and  _468
REMARK  189  A    between atoms: _468  and  _469
REMARK  190  A    between atoms: _468  and  _471
REMARK  191  A    between atoms: _471  and  _472
REMARK  192  A    between atoms: _472  and  _774
REMARK  193  A    between atoms: _473  and  _475
REMARK  194  A    between atoms: _475  and  _476
REMARK  195  A    between atoms: _475  and  _478
REMARK  196  A    between atoms: _478  and  _479
REMARK  197  A    between atoms: _484  and  _485
REMARK  198  A    between atoms: _487  and  _489
REMARK  199  A    between atoms: _489  and  _490
REMARK  200  A    between atoms: _489  and  _492
REMARK  201  A    between atoms: _492  and  _493
REMARK  202  A    between atoms: _493  and  _494
REMARK  203  A    between atoms: _499  and  _501
REMARK  204  A    between atoms: _501  and  _502
REMARK  205  A    between atoms: _501  and  _504
REMARK  206  A    between atoms: _504  and  _505
REMARK  207  A    between atoms: _505  and  _506
REMARK  208  A    between atoms: _511  and  _513
REMARK  209  A    between atoms: _513  and  _514
REMARK  210  A    between atoms: _513  and  _516
REMARK  211  A    between atoms: _516  and  _517
REMARK  212  A    between atoms: _522  and  _523
REMARK  213  A    between atoms: _525  and  _527
REMARK  214  A    between atoms: _527  and  _528
REMARK  215  A    between atoms: _531  and  _533
REMARK  216  A    between atoms: _533  and  _534
REMARK  217  A    between atoms: _533  and  _536
REMARK  218  A    between atoms: _536  and  _537
REMARK  219  A    between atoms: _542  and  _543
REMARK  220  A    between atoms: _545  and  _547
REMARK  221  A    between atoms: _547  and  _548
REMARK  222  A    between atoms: _547  and  _550
REMARK  223  A    between atoms: _550  and  _551
REMARK  224  A    between atoms: _556  and  _557
REMARK  225  A    between atoms: _559  and  _561
REMARK  226  A    between atoms: _561  and  _562
REMARK  227  A    between atoms: _561  and  _564
REMARK  228  A    between atoms: _564  and  _565
REMARK  229  A    between atoms: _568  and  _570
REMARK  230  A    between atoms: _570  and  _571
REMARK  231  A    between atoms: _574  and  _576
REMARK  232  A    between atoms: _576  and  _577
REMARK  233  A    between atoms: _580  and  _582
REMARK  234  A    between atoms: _582  and  _583
REMARK  235  A    between atoms: _582  and  _585
REMARK  236  A    between atoms: _585  and  _586
REMARK  237  A    between atoms: _589  and  _591
REMARK  238  A    between atoms: _591  and  _592
REMARK  239  A    between atoms: _591  and  _594
REMARK  240  A    between atoms: _594  and  _595
REMARK  241  A    between atoms: _598  and  _600
REMARK  242  A    between atoms: _600  and  _601
REMARK  243  A    between atoms: _600  and  _603
REMARK  244  A    between atoms: _603  and  _604
REMARK  245  A    between atoms: _607  and  _609
REMARK  246  A    between atoms: _609  and  _610
REMARK  247  A    between atoms: _609  and  _612
REMARK  248  A    between atoms: _612  and  _613
REMARK  249  A    between atoms: _613  and  _614
REMARK  250  A    between atoms: _614  and  _615
REMARK  251  A    between atoms: _615  and  _616
REMARK  252  A    between atoms: _620  and  _622
REMARK  253  A    between atoms: _622  and  _623
REMARK  254  A    between atoms: _622  and  _625
REMARK  255  A    between atoms: _625  and  _626
REMARK  256  A    between atoms: _631  and  _633
REMARK  257  A    between atoms: _633  and  _634
REMARK  258  A    between atoms: _633  and  _636
REMARK  259  A    between atoms: _636  and  _637
REMARK  260  A    between atoms: _637  and  _638
REMARK  261  A    between atoms: _638  and  _639
REMARK  262  A    between atoms: _639  and  _640
REMARK  263  A    between atoms: _644  and  _646
REMARK  264  A    between atoms: _646  and  _647
REMARK  265  A    between atoms: _646  and  _649
REMARK  266  A    between atoms: _649  and  _650
REMARK  267  A    between atoms: _660  and  _662
REMARK  268  A    between atoms: _662  and  _663
REMARK  269  A    between atoms: _666  and  _668
REMARK  270  A    between atoms: _668  and  _669
REMARK  271  A    between atoms: _671  and  _673
REMARK  272  A    between atoms: _673  and  _674
REMARK  273  A    between atoms: _673  and  _676
REMARK  274  A    between atoms: _676  and  _677
REMARK  275  A    between atoms: _677  and  _678
REMARK  276  A    between atoms: _681  and  _683
REMARK  277  A    between atoms: _683  and  _684
REMARK  278  A    between atoms: _687  and  _689
REMARK  279  A    between atoms: _689  and  _690
REMARK  280  A    between atoms: _689  and  _692
REMARK  281  A    between atoms: _692  and  _693
REMARK  282  A    between atoms: _693  and  _694
REMARK  283  A    between atoms: _694  and  _695
REMARK  284  A    between atoms: _704  and  _706
REMARK  285  A    between atoms: _706  and  _707
REMARK  286  A    between atoms: _706  and  _709
REMARK  287  A    between atoms: _709  and  _710
REMARK  288  A    between atoms: _713  and  _715
REMARK  289  A    between atoms: _715  and  _716
REMARK  290  A    between atoms: _715  and  _718
REMARK  291  A    between atoms: _718  and  _719
REMARK  292  A    between atoms: _719  and  _720
REMARK  293  A    between atoms: _720  and  _721
REMARK  294  A    between atoms: _730  and  _732
REMARK  295  A    between atoms: _732  and  _733
REMARK  296  A    between atoms: _736  and  _738
REMARK  297  A    between atoms: _738  and  _739
REMARK  298  A    between atoms: _738  and  _741
REMARK  299  A    between atoms: _741  and  _742
REMARK  300  A    between atoms: _747  and  _748
REMARK  301  A    between atoms: _750  and  _752
REMARK  302  A    between atoms: _752  and  _753
REMARK  303  A    between atoms: _752  and  _755
REMARK  304  A    between atoms: _755  and  _756
REMARK  305  A    between atoms: _759  and  _761
REMARK  306  A    between atoms: _761  and  _762
REMARK  307  A    between atoms: _761  and  _764
REMARK  308  A    between atoms: _764  and  _765
REMARK  309  A    between atoms: _768  and  _770
REMARK  310  A    between atoms: _770  and  _771
REMARK  311  A    between atoms: _770  and  _773
REMARK  312  A    between atoms: _773  and  _774
REMARK  313  A    between atoms: _775  and  _777
REMARK  314  A    between atoms: _777  and  _778
REMARK  315  A    between atoms: _777  and  _780
REMARK  316  A    between atoms: _783  and  _785
REMARK  317  A    between atoms: _785  and  _786
REMARK  318  A    between atoms: _785  and  _788
REMARK  319  A    between atoms: _788  and  _789
REMARK  320  A    between atoms: _789  and  _790
REMARK  321  A    between atoms: _793  and  _795
REMARK  322  A    between atoms: _795  and  _796
REMARK  323  A    between atoms: _795  and  _798
REMARK  324  A    between atoms: _798  and  _799
REMARK  325  A    between atoms: _809  and  _811
REMARK  326  A    between atoms: _811  and  _812
REMARK  327  A    between atoms: _811  and  _814
REMARK  328  A    between atoms: _814  and  _815
REMARK  329  A    between atoms: _818  and  _820
REMARK  330  A    between atoms: _820  and  _821
REMARK  331  A    between atoms: _820  and  _823
REMARK  332  A    between atoms: _823  and  _824
REMARK  333  A    between atoms: _829  and  _830
REMARK                            x       y       z     vdW  Elec       q    Type
REMARK                         _______ _______ _______ _____ _____    ______ ____
ROOT
ATOM      1  O   HOH     1     -23.274  17.210  26.779  0.00  0.00    +0.000 OA
ENDROOT
TORSDOF 0
REMARK  Name = ../refined-set-2016/3p9l/3p9l_pocket.pdb
REMARK  333 active torsions:
REMARK  status: ('A' for Active; 'I' for Inactive)
REMARK    1  A    between atoms: _1  and  _3
REMARK    2  A    between atoms: _3  and  _4
REMARK    3  A    between atoms: _3  and  _6
REMARK    4  A    between atoms: _6  and  _7
REMARK    5  A    between atoms: _10  and  _12
REMARK    6  A    between atoms: _12  and  _13
REMARK    7  A    between atoms: _12  and  _15
REMARK    8  A    between atoms: _15  and  _16
REMARK    9  A    between atoms: _16  and  _17
REMARK   10  A    between atoms: _17  and  _18
REMARK   11  A    between atoms: _27  and  _29
REMARK   12  A    between atoms: _29  and  _30
REMARK   13  A    between atoms: _29  and  _32
REMARK   14  A    between atoms: _32  and  _33
REMARK   15  A    between atoms: _38  and  _39
REMARK   16  A    between atoms: _41  and  _43
REMARK   17  A    between atoms: _43  and  _44
REMARK   18  A    between atoms: _43  and  _46
REMARK   19  A    between atoms: _46  and  _47
REMARK   20  A    between atoms: _53  and  _55
REMARK   21  A    between atoms: _55  and  _56
REMARK   22  A    between atoms: _55  and  _58
REMARK   23  A    between atoms: _61  and  _63
REMARK   24  A    between atoms: _63  and  _64
REMARK   25  A    between atoms: _63  and  _66
REMARK   26  A    between atoms: _66  and  _67
REMARK   27  A    between atoms: _70  and  _72
REMARK   28  A    between atoms: _72  and  _73
REMARK   29  A    between atoms: _72  and  _75
REMARK   30  A    between atoms: _75  and  _76
REMARK   31  A    between atoms: _81  and  _82
REMARK   32  A    between atoms: _84  and  _86
REMARK   33  A    between atoms: _86  and  _87
REMARK   34  A    between atoms: _86  and  _89
REMARK   35  A    between atoms: _89  and  _90
REMARK   36  A    between atoms: _90  and  _91
REMARK   37  A    between atoms: _93  and  _95
REMARK   38  A    between atoms: _95  and  _96
REMARK   39  A    between atoms: _95  and  _98
REMARK   40  A    between atoms: _98  and  _99
REMARK   41  A    between atoms: _99  and  _100
REMARK   42  A    between atoms: _103  and  _105
REMARK   43  A    between atoms: _105  and  _106
REMARK   44  A    between atoms: _105  and  _108
REMARK   45  A    between atoms: _111  and  _113
REMARK   46  A    between atoms: _113  and  _114
REMARK   47  A    between atoms: _116  and  _118
REMARK   48  A    between atoms: _118  and  _119
REMARK   49  A    between atoms: _118  and  _121
REMARK   50  A    between atoms: _124  and  _126
REMARK   51  A    between atoms: _126  and  _127
REMARK   52  A    between atoms: _126  and  _129
REMARK   53  A    between atoms: _129  and  _130
REMARK   54  A    between atoms: _136  and  _138
REMARK   55  A    between atoms: _138  and  _139
REMARK   56  A    between atoms: _138  and  _141
REMARK   57  A    between atoms: _144  and  _146
REMARK   58  A    between atoms: _146  and  _147
REMARK   59  A    between atoms: _146  and  _149
REMARK   60  A    between atoms: _149  and  _150
REMARK   61  A    between atoms: _156  and  _158
REMARK   62  A    between atoms: _158  and  _159
REMARK   63  A    between atoms: _158  and  _161
REMARK   64  A    between atoms: _161  and  _162
REMARK   65  A    between atoms: _167  and  _168
REMARK   66  A    between atoms: _170  and  _172
REMARK   67  A    between atoms: _172  and  _173
REMARK   68  A    between atoms: _172  and  _175
REMARK   69  A    between atoms: _175  and  _176
REMARK   70  A    between atoms: _176  and  _177
REMARK   71  A    between atoms: _179  and  _181
REMARK   72  A    between atoms: _181  and  _182
REMARK   73  A    between atoms: _181  and  _184
REMARK   74  A    between atoms: _184  and  _185
REMARK   75  A    between atoms: _190  and  _191
REMARK   76  A    between atoms: _193  and  _195
REMARK   77  A    between atoms: _195  and  _196
REMARK   78  A    between atoms: _195  and  _198
REMARK   79  A    between atoms: _198  and  _199
REMARK   80  A    between atoms: _199  and  _200
REMARK   81  A    between atoms: _200  and  _201
REMARK   82  A    between atoms: _210  and  _212
REMARK   83  A    between atoms: _212  and  _213
REMARK   84  A    between atoms: _212  and  _215
REMARK   85  A    between atoms: _215  and  _216
REMARK   86  A    between atoms: _216  and  _217
REMARK   87  A    between atoms: _220  and  _222
REMARK   88  A    between atoms: _222  and  _223
REMARK   89  A    between atoms: _222  and  _225
REMARK   90  A    between atoms: _225  and  _226
REMARK   91  A    between atoms: _226  and  _227
REMARK   92  A    between atoms: _232  and  _234
REMARK   93  A    between atoms: _234  and  _235
REMARK   94  A    between atoms: _234  and  _237
REMARK   95  A    between atoms: _237  and  _238
REMARK   96  A    between atoms: _238  and  _239
REMARK   97  A    between atoms: _239  and  _240
REMARK   98  A    between atoms: _240  and  _241
REMARK   99  A    between atoms: _245  and  _247
REMARK  100  A    between atoms: _247  and  _248
REMARK  101  A    between atoms: _251  and  _253
REMARK  102  A    between atoms: _253  and  _254
REMARK  103  A    between atoms: _256  and  _258
REMARK  104  A    between atoms: _258  and  _259
REMARK  105  A    between atoms: _258  and  _261
REMARK  106  A    between atoms: _261  and  _262
REMARK  107  A    between atoms: _267  and  _269
REMARK  108  A    between atoms: _269  and  _270
REMARK  109  A    between atoms: _269  and  _272
REMARK  110  A    between atoms: _272  and  _273
REMARK  111  A    between atoms: _273  and  _274
REMARK  112  A    between atoms: _277  and  _279
REMARK  113  A    between atoms: _279  and  _280
REMARK  114  A    between atoms: _279  and  _282
REMARK  115  A    between atoms: _282  and  _283
REMARK  116  A    between atoms: _283  and  _284
REMARK  117  A    between atoms: _289  and  _291
REMARK  118  A    between atoms: _291  and  _292
REMARK  119  A    between atoms: _291  and  _294
REMARK  120  A    between atoms: _294  and  _295
REMARK  121  A    between atoms: _297  and  _299
REMARK  122  A    between atoms: _299  and  _300
REMARK  123  A    between atoms: _299  and  _302
REMARK  124  A    between atoms: _302  and  _303
REMARK  125  A    between atoms: _309  and  _311
REMARK  126  A    between atoms: _311  and  _312
REMARK  127  A    between atoms: _311  and  _314
REMARK  128  A    between atoms: _314  and  _315
REMARK  129  A    between atoms: _315  and  _316
REMARK  130  A    between atoms: _316  and  _317
REMARK  131  A    between atoms: _326  and  _328
REMARK  132  A    between atoms: _328  and  _329
REMARK  133  A    between atoms: _328  and  _331
REMARK  134  A    between atoms: _334  and  _336
REMARK  135  A    between atoms: _336  and  _337
REMARK  136  A    between atoms: _336  and  _339
REMARK  137  A    between atoms: _339  and  _340
REMARK  138  A    between atoms: _343  and  _345
REMARK  139  A    between atoms: _345  and  _346
REMARK  140  A    between atoms: _345  and  _348
REMARK  141  A    between atoms: _348  and  _349
REMARK  142  A    between atoms: _352  and  _354
REMARK  143  A    between atoms: _354  and  _355
REMARK  144  A    between atoms: _354  and  _357
REMARK  145  A    between atoms: _357  and  _358
REMARK  146  A    between atoms: _358  and  _359
REMARK  147  A    between atoms: _359  and  _360
REMARK  148  A    between atoms: _369  and  _371
REMARK  149  A    between atoms: _371  and  _372
REMARK  150  A    between atoms: _371  and  _374
REMARK  151  A    between atoms: _374  and  _375
REMARK  152  A    between atoms: _378  and  _380
REMARK  153  A    between atoms: _380  and  _381
REMARK  154  A    between atoms: _380  and  _383
REMARK  155  A    between atoms: _383  and  _384
REMARK  156  A    between atoms: _387  and  _389
REMARK  157  A    between atoms: _389  and  _390
REMARK  158  A    between atoms: _389  and  _392
REMARK  159  A    between atoms: _392  and  _393
REMARK  160  A    between atoms: _398  and  _399
REMARK  161  A    between atoms: _401  and  _403
REMARK  162  A    between atoms: _403  and  _404
REMARK  163  A    between atoms: _403  and  _406
REMARK  164  A    between atoms: _406  and  _407
REMARK  165  A    between atoms: _412  and  _413
REMARK  166  A    between atoms: _415  and  _417
REMARK  167  A    between atoms: _417  and  _418
REMARK  168  A    between atoms: _417  and  _420
REMARK  169  A    between atoms: _420  and  _421
REMARK  170  A    between atoms: _424  and  _426
REMARK  171  A    between atoms: _426  and  _427
REMARK  172  A    between atoms: _426  and  _429
REMARK  173  A    between atoms: _429  and  _430
REMARK  174  A    between atoms: _430  and  _431
REMARK  175  A    between atoms: _436  and  _438
REMARK  176  A    between atoms: _438  and  _439
REMARK  177  A    between atoms: _438  and  _441
REMARK  178  A    between atoms: _444  and  _446
REMARK  179  A    between atoms: _446  and  _447
REMARK  180  A    between atoms: _446  and  _449
REMARK  181  A    between atoms: _449  and  _450
REMARK  182  A    between atoms: _453  and  _455
REMARK  183  A    between atoms: _455  and  _456
REMARK  184  A    between atoms: _455  and  _458
REMARK  185  A    between atoms: _458  and  _459
REMARK  186  A    between atoms: _461  and  _463
REMARK  187  A    between atoms: _463  and  _464
REMARK  188  A    between atoms: _466  and  _468
REMARK  189  A    between atoms: _468  and  _469
REMARK  190  A    between atoms: _468  and  _471
REMARK  191  A    between atoms: _471  and  _472
REMARK  192  A    between atoms: _472  and  _774
REMARK  193  A    between atoms: _473  and  _475
REMARK  194  A    between atoms: _475  and  _476
REMARK  195  A    between atoms: _475  and  _478
REMARK  196  A    between atoms: _478  and  _479
REMARK  197  A    between atoms: _484  and  _485
REMARK  198  A    between atoms: _487  and  _489
REMARK  199  A    between atoms: _489  and  _490
REMARK  200  A    between atoms: _489  and  _492
REMARK  201  A    between atoms: _492  and  _493
REMARK  202  A    between atoms: _493  and  _494
REMARK  203  A    between atoms: _499  and  _501
REMARK  204  A    between atoms: _501  and  _502
REMARK  205  A    between atoms: _501  and  _504
REMARK  206  A    between atoms: _504  and  _505
REMARK  207  A    between atoms: _505  and  _506
REMARK  208  A    between atoms: _511  and  _513
REMARK  209  A    between atoms: _513  and  _514
REMARK  210  A    between atoms: _513  and  _516
REMARK  211  A    between atoms: _516  and  _517
REMARK  212  A    between atoms: _522  and  _523
REMARK  213  A    between atoms: _525  and  _527
REMARK  214  A    between atoms: _527  and  _528
REMARK  215  A    between atoms: _531  and  _533
REMARK  216  A    between atoms: _533  and  _534
REMARK  217  A    between atoms: _533  and  _536
REMARK  218  A    between atoms: _536  and  _537
REMARK  219  A    between atoms: _542  and  _543
REMARK  220  A    between atoms: _545  and  _547
REMARK  221  A    between atoms: _547  and  _548
REMARK  222  A    between atoms: _547  and  _550
REMARK  223  A    between atoms: _550  and  _551
REMARK  224  A    between atoms: _556  and  _557
REMARK  225  A    between atoms: _559  and  _561
REMARK  226  A    between atoms: _561  and  _562
REMARK  227  A    between atoms: _561  and  _564
REMARK  228  A    between atoms: _564  and  _565
REMARK  229  A    between atoms: _568  and  _570
REMARK  230  A    between atoms: _570  and  _571
REMARK  231  A    between atoms: _574  and  _576
REMARK  232  A    between atoms: _576  and  _577
REMARK  233  A    between atoms: _580  and  _582
REMARK  234  A    between atoms: _582  and  _583
REMARK  235  A    between atoms: _582  and  _585
REMARK  236  A    between atoms: _585  and  _586
REMARK  237  A    between atoms: _589  and  _591
REMARK  238  A    between atoms: _591  and  _592
REMARK  239  A    between atoms: _591  and  _594
REMARK  240  A    between atoms: _594  and  _595
REMARK  241  A    between atoms: _598  and  _600
REMARK  242  A    between atoms: _600  and  _601
REMARK  243  A    between atoms: _600  and  _603
REMARK  244  A    between atoms: _603  and  _604
REMARK  245  A    between atoms: _607  and  _609
REMARK  246  A    between atoms: _609  and  _610
REMARK  247  A    between atoms: _609  and  _612
REMARK  248  A    between atoms: _612  and  _613
REMARK  249  A    between atoms: _613  and  _614
REMARK  250  A    between atoms: _614  and  _615
REMARK  251  A    between atoms: _615  and  _616
REMARK  252  A    between atoms: _620  and  _622
REMARK  253  A    between atoms: _622  and  _623
REMARK  254  A    between atoms: _622  and  _625
REMARK  255  A    between atoms: _625  and  _626
REMARK  256  A    between atoms: _631  and  _633
REMARK  257  A    between atoms: _633  and  _634
REMARK  258  A    between atoms: _633  and  _636
REMARK  259  A    between atoms: _636  and  _637
REMARK  260  A    between atoms: _637  and  _638
REMARK  261  A    between atoms: _638  and  _639
REMARK  262  A    between atoms: _639  and  _640
REMARK  263  A    between atoms: _644  and  _646
REMARK  264  A    between atoms: _646  and  _647
REMARK  265  A    between atoms: _646  and  _649
REMARK  266  A    between atoms: _649  and  _650
REMARK  267  A    between atoms: _660  and  _662
REMARK  268  A    between atoms: _662  and  _663
REMARK  269  A    between atoms: _666  and  _668
REMARK  270  A    between atoms: _668  and  _669
REMARK  271  A    between atoms: _671  and  _673
REMARK  272  A    between atoms: _673  and  _674
REMARK  273  A    between atoms: _673  and  _676
REMARK  274  A    between atoms: _676  and  _677
REMARK  275  A    between atoms: _677  and  _678
REMARK  276  A    between atoms: _681  and  _683
REMARK  277  A    between atoms: _683  and  _684
REMARK  278  A    between atoms: _687  and  _689
REMARK  279  A    between atoms: _689  and  _690
REMARK  280  A    between atoms: _689  and  _692
REMARK  281  A    between atoms: _692  and  _693
REMARK  282  A    between atoms: _693  and  _694
REMARK  283  A    between atoms: _694  and  _695
REMARK  284  A    between atoms: _704  and  _706
REMARK  285  A    between atoms: _706  and  _707
REMARK  286  A    between atoms: _706  and  _709
REMARK  287  A    between atoms: _709  and  _710
REMARK  288  A    between atoms: _713  and  _715
REMARK  289  A    between atoms: _715  and  _716
REMARK  290  A    between atoms: _715  and  _718
REMARK  291  A    between atoms: _718  and  _719
REMARK  292  A    between atoms: _719  and  _720
REMARK  293  A    between atoms: _720  and  _721
REMARK  294  A    between atoms: _730  and  _732
REMARK  295  A    between atoms: _732  and  _733
REMARK  296  A    between atoms: _736  and  _738
REMARK  297  A    between atoms: _738  and  _739
REMARK  298  A    between atoms: _738  and  _741
REMARK  299  A    between atoms: _741  and  _742
REMARK  300  A    between atoms: _747  and  _748
REMARK  301  A    between atoms: _750  and  _752
REMARK  302  A    between atoms: _752  and  _753
REMARK  303  A    between atoms: _752  and  _755
REMARK  304  A    between atoms: _755  and  _756
REMARK  305  A    between atoms: _759  and  _761
REMARK  306  A    between atoms: _761  and  _762
REMARK  307  A    between atoms: _761  and  _764
REMARK  308  A    between atoms: _764  and  _765
REMARK  309  A    between atoms: _768  and  _770
REMARK  310  A    between atoms: _770  and  _771
REMARK  311  A    between atoms: _770  and  _773
REMARK  312  A    between atoms: _773  and  _774
REMARK  313  A    between atoms: _775  and  _777
REMARK  314  A    between atoms: _777  and  _778
REMARK  315  A    between atoms: _777  and  _780
REMARK  316  A    between atoms: _783  and  _785
REMARK  317  A    between atoms: _785  and  _786
REMARK  318  A    between atoms: _785  and  _788
REMARK  319  A    between atoms: _788  and  _789
REMARK  320  A    between atoms: _789  and  _790
REMARK  321  A    between atoms: _793  and  _795
REMARK  322  A    between atoms: _795  and  _796
REMARK  323  A    between atoms: _795  and  _798
REMARK  324  A    between atoms: _798  and  _799
REMARK  325  A    between atoms: _809  and  _811
REMARK  326  A    between atoms: _811  and  _812
REMARK  327  A    between atoms: _811  and  _814
REMARK  328  A    between atoms: _814  and  _815
REMARK  329  A    between atoms: _818  and  _820
REMARK  330  A    between atoms: _820  and  _821
REMARK  331  A    between atoms: _820  and  _823
REMARK  332  A    between atoms: _823  and  _824
REMARK  333  A    between atoms: _829  and  _830
REMARK                            x       y       z     vdW  Elec       q    Type
REMARK                         _______ _______ _______ _____ _____    ______ ____
ROOT
ATOM      1  O   HOH     1     -17.520  -3.082  38.552  0.00  0.00    +0.000 OA
ENDROOT
TORSDOF 0
REMARK  Name = ../refined-set-2016/3p9l/3p9l_pocket.pdb
REMARK  333 active torsions:
REMARK  status: ('A' for Active; 'I' for Inactive)
REMARK    1  A    between atoms: _1  and  _3
REMARK    2  A    between atoms: _3  and  _4
REMARK    3  A    between atoms: _3  and  _6
REMARK    4  A    between atoms: _6  and  _7
REMARK    5  A    between atoms: _10  and  _12
REMARK    6  A    between atoms: _12  and  _13
REMARK    7  A    between atoms: _12  and  _15
REMARK    8  A    between atoms: _15  and  _16
REMARK    9  A    between atoms: _16  and  _17
REMARK   10  A    between atoms: _17  and  _18
REMARK   11  A    between atoms: _27  and  _29
REMARK   12  A    between atoms: _29  and  _30
REMARK   13  A    between atoms: _29  and  _32
REMARK   14  A    between atoms: _32  and  _33
REMARK   15  A    between atoms: _38  and  _39
REMARK   16  A    between atoms: _41  and  _43
REMARK   17  A    between atoms: _43  and  _44
REMARK   18  A    between atoms: _43  and  _46
REMARK   19  A    between atoms: _46  and  _47
REMARK   20  A    between atoms: _53  and  _55
REMARK   21  A    between atoms: _55  and  _56
REMARK   22  A    between atoms: _55  and  _58
REMARK   23  A    between atoms: _61  and  _63
REMARK   24  A    between atoms: _63  and  _64
REMARK   25  A    between atoms: _63  and  _66
REMARK   26  A    between atoms: _66  and  _67
REMARK   27  A    between atoms: _70  and  _72
REMARK   28  A    between atoms: _72  and  _73
REMARK   29  A    between atoms: _72  and  _75
REMARK   30  A    between atoms: _75  and  _76
REMARK   31  A    between atoms: _81  and  _82
REMARK   32  A    between atoms: _84  and  _86
REMARK   33  A    between atoms: _86  and  _87
REMARK   34  A    between atoms: _86  and  _89
REMARK   35  A    between atoms: _89  and  _90
REMARK   36  A    between atoms: _90  and  _91
REMARK   37  A    between atoms: _93  and  _95
REMARK   38  A    between atoms: _95  and  _96
REMARK   39  A    between atoms: _95  and  _98
REMARK   40  A    between atoms: _98  and  _99
REMARK   41  A    between atoms: _99  and  _100
REMARK   42  A    between atoms: _103  and  _105
REMARK   43  A    between atoms: _105  and  _106
REMARK   44  A    between atoms: _105  and  _108
REMARK   45  A    between atoms: _111  and  _113
REMARK   46  A    between atoms: _113  and  _114
REMARK   47  A    between atoms: _116  and  _118
REMARK   48  A    between atoms: _118  and  _119
REMARK   49  A    between atoms: _118  and  _121
REMARK   50  A    between atoms: _124  and  _126
REMARK   51  A    between atoms: _126  and  _127
REMARK   52  A    between atoms: _126  and  _129
REMARK   53  A    between atoms: _129  and  _130
REMARK   54  A    between atoms: _136  and  _138
REMARK   55  A    between atoms: _138  and  _139
REMARK   56  A    between atoms: _138  and  _141
REMARK   57  A    between atoms: _144  and  _146
REMARK   58  A    between atoms: _146  and  _147
REMARK   59  A    between atoms: _146  and  _149
REMARK   60  A    between atoms: _149  and  _150
REMARK   61  A    between atoms: _156  and  _158
REMARK   62  A    between atoms: _158  and  _159
REMARK   63  A    between atoms: _158  and  _161
REMARK   64  A    between atoms: _161  and  _162
REMARK   65  A    between atoms: _167  and  _168
REMARK   66  A    between atoms: _170  and  _172
REMARK   67  A    between atoms: _172  and  _173
REMARK   68  A    between atoms: _172  and  _175
REMARK   69  A    between atoms: _175  and  _176
REMARK   70  A    between atoms: _176  and  _177
REMARK   71  A    between atoms: _179  and  _181
REMARK   72  A    between atoms: _181  and  _182
REMARK   73  A    between atoms: _181  and  _184
REMARK   74  A    between atoms: _184  and  _185
REMARK   75  A    between atoms: _190  and  _191
REMARK   76  A    between atoms: _193  and  _195
REMARK   77  A    between atoms: _195  and  _196
REMARK   78  A    between atoms: _195  and  _198
REMARK   79  A    between atoms: _198  and  _199
REMARK   80  A    between atoms: _199  and  _200
REMARK   81  A    between atoms: _200  and  _201
REMARK   82  A    between atoms: _210  and  _212
REMARK   83  A    between atoms: _212  and  _213
REMARK   84  A    between atoms: _212  and  _215
REMARK   85  A    between atoms: _215  and  _216
REMARK   86  A    between atoms: _216  and  _217
REMARK   87  A    between atoms: _220  and  _222
REMARK   88  A    between atoms: _222  and  _223
REMARK   89  A    between atoms: _222  and  _225
REMARK   90  A    between atoms: _225  and  _226
REMARK   91  A    between atoms: _226  and  _227
REMARK   92  A    between atoms: _232  and  _234
REMARK   93  A    between atoms: _234  and  _235
REMARK   94  A    between atoms: _234  and  _237
REMARK   95  A    between atoms: _237  and  _238
REMARK   96  A    between atoms: _238  and  _239
REMARK   97  A    between atoms: _239  and  _240
REMARK   98  A    between atoms: _240  and  _241
REMARK   99  A    between atoms: _245  and  _247
REMARK  100  A    between atoms: _247  and  _248
REMARK  101  A    between atoms: _251  and  _253
REMARK  102  A    between atoms: _253  and  _254
REMARK  103  A    between atoms: _256  and  _258
REMARK  104  A    between atoms: _258  and  _259
REMARK  105  A    between atoms: _258  and  _261
REMARK  106  A    between atoms: _261  and  _262
REMARK  107  A    between atoms: _267  and  _269
REMARK  108  A    between atoms: _269  and  _270
REMARK  109  A    between atoms: _269  and  _272
REMARK  110  A    between atoms: _272  and  _273
REMARK  111  A    between atoms: _273  and  _274
REMARK  112  A    between atoms: _277  and  _279
REMARK  113  A    between atoms: _279  and  _280
REMARK  114  A    between atoms: _279  and  _282
REMARK  115  A    between atoms: _282  and  _283
REMARK  116  A    between atoms: _283  and  _284
REMARK  117  A    between atoms: _289  and  _291
REMARK  118  A    between atoms: _291  and  _292
REMARK  119  A    between atoms: _291  and  _294
REMARK  120  A    between atoms: _294  and  _295
REMARK  121  A    between atoms: _297  and  _299
REMARK  122  A    between atoms: _299  and  _300
REMARK  123  A    between atoms: _299  and  _302
REMARK  124  A    between atoms: _302  and  _303
REMARK  125  A    between atoms: _309  and  _311
REMARK  126  A    between atoms: _311  and  _312
REMARK  127  A    between atoms: _311  and  _314
REMARK  128  A    between atoms: _314  and  _315
REMARK  129  A    between atoms: _315  and  _316
REMARK  130  A    between atoms: _316  and  _317
REMARK  131  A    between atoms: _326  and  _328
REMARK  132  A    between atoms: _328  and  _329
REMARK  133  A    between atoms: _328  and  _331
REMARK  134  A    between atoms: _334  and  _336
REMARK  135  A    between atoms: _336  and  _337
REMARK  136  A    between atoms: _336  and  _339
REMARK  137  A    between atoms: _339  and  _340
REMARK  138  A    between atoms: _343  and  _345
REMARK  139  A    between atoms: _345  and  _346
REMARK  140  A    between atoms: _345  and  _348
REMARK  141  A    between atoms: _348  and  _349
REMARK  142  A    between atoms: _352  and  _354
REMARK  143  A    between atoms: _354  and  _355
REMARK  144  A    between atoms: _354  and  _357
REMARK  145  A    between atoms: _357  and  _358
REMARK  146  A    between atoms: _358  and  _359
REMARK  147  A    between atoms: _359  and  _360
REMARK  148  A    between atoms: _369  and  _371
REMARK  149  A    between atoms: _371  and  _372
REMARK  150  A    between atoms: _371  and  _374
REMARK  151  A    between atoms: _374  and  _375
REMARK  152  A    between atoms: _378  and  _380
REMARK  153  A    between atoms: _380  and  _381
REMARK  154  A    between atoms: _380  and  _383
REMARK  155  A    between atoms: _383  and  _384
REMARK  156  A    between atoms: _387  and  _389
REMARK  157  A    between atoms: _389  and  _390
REMARK  158  A    between atoms: _389  and  _392
REMARK  159  A    between atoms: _392  and  _393
REMARK  160  A    between atoms: _398  and  _399
REMARK  161  A    between atoms: _401  and  _403
REMARK  162  A    between atoms: _403  and  _404
REMARK  163  A    between atoms: _403  and  _406
REMARK  164  A    between atoms: _406  and  _407
REMARK  165  A    between atoms: _412  and  _413
REMARK  166  A    between atoms: _415  and  _417
REMARK  167  A    between atoms: _417  and  _418
REMARK  168  A    between atoms: _417  and  _420
REMARK  169  A    between atoms: _420  and  _421
REMARK  170  A    between atoms: _424  and  _426
REMARK  171  A    between atoms: _426  and  _427
REMARK  172  A    between atoms: _426  and  _429
REMARK  173  A    between atoms: _429  and  _430
REMARK  174  A    between atoms: _430  and  _431
REMARK  175  A    between atoms: _436  and  _438
REMARK  176  A    between atoms: _438  and  _439
REMARK  177  A    between atoms: _438  and  _441
REMARK  178  A    between atoms: _444  and  _446
REMARK  179  A    between atoms: _446  and  _447
REMARK  180  A    between atoms: _446  and  _449
REMARK  181  A    between atoms: _449  and  _450
REMARK  182  A    between atoms: _453  and  _455
REMARK  183  A    between atoms: _455  and  _456
REMARK  184  A    between atoms: _455  and  _458
REMARK  185  A    between atoms: _458  and  _459
REMARK  186  A    between atoms: _461  and  _463
REMARK  187  A    between atoms: _463  and  _464
REMARK  188  A    between atoms: _466  and  _468
REMARK  189  A    between atoms: _468  and  _469
REMARK  190  A    between atoms: _468  and  _471
REMARK  191  A    between atoms: _471  and  _472
REMARK  192  A    between atoms: _472  and  _774
REMARK  193  A    between atoms: _473  and  _475
REMARK  194  A    between atoms: _475  and  _476
REMARK  195  A    between atoms: _475  and  _478
REMARK  196  A    between atoms: _478  and  _479
REMARK  197  A    between atoms: _484  and  _485
REMARK  198  A    between atoms: _487  and  _489
REMARK  199  A    between atoms: _489  and  _490
REMARK  200  A    between atoms: _489  and  _492
REMARK  201  A    between atoms: _492  and  _493
REMARK  202  A    between atoms: _493  and  _494
REMARK  203  A    between atoms: _499  and  _501
REMARK  204  A    between atoms: _501  and  _502
REMARK  205  A    between atoms: _501  and  _504
REMARK  206  A    between atoms: _504  and  _505
REMARK  207  A    between atoms: _505  and  _506
REMARK  208  A    between atoms: _511  and  _513
REMARK  209  A    between atoms: _513  and  _514
REMARK  210  A    between atoms: _513  and  _516
REMARK  211  A    between atoms: _516  and  _517
REMARK  212  A    between atoms: _522  and  _523
REMARK  213  A    between atoms: _525  and  _527
REMARK  214  A    between atoms: _527  and  _528
REMARK  215  A    between atoms: _531  and  _533
REMARK  216  A    between atoms: _533  and  _534
REMARK  217  A    between atoms: _533  and  _536
REMARK  218  A    between atoms: _536  and  _537
REMARK  219  A    between atoms: _542  and  _543
REMARK  220  A    between atoms: _545  and  _547
REMARK  221  A    between atoms: _547  and  _548
REMARK  222  A    between atoms: _547  and  _550
REMARK  223  A    between atoms: _550  and  _551
REMARK  224  A    between atoms: _556  and  _557
REMARK  225  A    between atoms: _559  and  _561
REMARK  226  A    between atoms: _561  and  _562
REMARK  227  A    between atoms: _561  and  _564
REMARK  228  A    between atoms: _564  and  _565
REMARK  229  A    between atoms: _568  and  _570
REMARK  230  A    between atoms: _570  and  _571
REMARK  231  A    between atoms: _574  and  _576
REMARK  232  A    between atoms: _576  and  _577
REMARK  233  A    between atoms: _580  and  _582
REMARK  234  A    between atoms: _582  and  _583
REMARK  235  A    between atoms: _582  and  _585
REMARK  236  A    between atoms: _585  and  _586
REMARK  237  A    between atoms: _589  and  _591
REMARK  238  A    between atoms: _591  and  _592
REMARK  239  A    between atoms: _591  and  _594
REMARK  240  A    between atoms: _594  and  _595
REMARK  241  A    between atoms: _598  and  _600
REMARK  242  A    between atoms: _600  and  _601
REMARK  243  A    between atoms: _600  and  _603
REMARK  244  A    between atoms: _603  and  _604
REMARK  245  A    between atoms: _607  and  _609
REMARK  246  A    between atoms: _609  and  _610
REMARK  247  A    between atoms: _609  and  _612
REMARK  248  A    between atoms: _612  and  _613
REMARK  249  A    between atoms: _613  and  _614
REMARK  250  A    between atoms: _614  and  _615
REMARK  251  A    between atoms: _615  and  _616
REMARK  252  A    between atoms: _620  and  _622
REMARK  253  A    between atoms: _622  and  _623
REMARK  254  A    between atoms: _622  and  _625
REMARK  255  A    between atoms: _625  and  _626
REMARK  256  A    between atoms: _631  and  _633
REMARK  257  A    between atoms: _633  and  _634
REMARK  258  A    between atoms: _633  and  _636
REMARK  259  A    between atoms: _636  and  _637
REMARK  260  A    between atoms: _637  and  _638
REMARK  261  A    between atoms: _638  and  _639
REMARK  262  A    between atoms: _639  and  _640
REMARK  263  A    between atoms: _644  and  _646
REMARK  264  A    between atoms: _646  and  _647
REMARK  265  A    between atoms: _646  and  _649
REMARK  266  A    between atoms: _649  and  _650
REMARK  267  A    between atoms: _660  and  _662
REMARK  268  A    between atoms: _662  and  _663
REMARK  269  A    between atoms: _666  and  _668
REMARK  270  A    between atoms: _668  and  _669
REMARK  271  A    between atoms: _671  and  _673
REMARK  272  A    between atoms: _673  and  _674
REMARK  273  A    between atoms: _673  and  _676
REMARK  274  A    between atoms: _676  and  _677
REMARK  275  A    between atoms: _677  and  _678
REMARK  276  A    between atoms: _681  and  _683
REMARK  277  A    between atoms: _683  and  _684
REMARK  278  A    between atoms: _687  and  _689
REMARK  279  A    between atoms: _689  and  _690
REMARK  280  A    between atoms: _689  and  _692
REMARK  281  A    between atoms: _692  and  _693
REMARK  282  A    between atoms: _693  and  _694
REMARK  283  A    between atoms: _694  and  _695
REMARK  284  A    between atoms: _704  and  _706
REMARK  285  A    between atoms: _706  and  _707
REMARK  286  A    between atoms: _706  and  _709
REMARK  287  A    between atoms: _709  and  _710
REMARK  288  A    between atoms: _713  and  _715
REMARK  289  A    between atoms: _715  and  _716
REMARK  290  A    between atoms: _715  and  _718
REMARK  291  A    between atoms: _718  and  _719
REMARK  292  A    between atoms: _719  and  _720
REMARK  293  A    between atoms: _720  and  _721
REMARK  294  A    between atoms: _730  and  _732
REMARK  295  A    between atoms: _732  and  _733
REMARK  296  A    between atoms: _736  and  _738
REMARK  297  A    between atoms: _738  and  _739
REMARK  298  A    between atoms: _738  and  _741
REMARK  299  A    between atoms: _741  and  _742
REMARK  300  A    between atoms: _747  and  _748
REMARK  301  A    between atoms: _750  and  _752
REMARK  302  A    between atoms: _752  and  _753
REMARK  303  A    between atoms: _752  and  _755
REMARK  304  A    between atoms: _755  and  _756
REMARK  305  A    between atoms: _759  and  _761
REMARK  306  A    between atoms: _761  and  _762
REMARK  307  A    between atoms: _761  and  _764
REMARK  308  A    between atoms: _764  and  _765
REMARK  309  A    between atoms: _768  and  _770
REMARK  310  A    between atoms: _770  and  _771
REMARK  311  A    between atoms: _770  and  _773
REMARK  312  A    between atoms: _773  and  _774
REMARK  313  A    between atoms: _775  and  _777
REMARK  314  A    between atoms: _777  and  _778
REMARK  315  A    between atoms: _777  and  _780
REMARK  316  A    between atoms: _783  and  _785
REMARK  317  A    between atoms: _785  and  _786
REMARK  318  A    between atoms: _785  and  _788
REMARK  319  A    between atoms: _788  and  _789
REMARK  320  A    between atoms: _789  and  _790
REMARK  321  A    between atoms: _793  and  _795
REMARK  322  A    between atoms: _795  and  _796
REMARK  323  A    between atoms: _795  and  _798
REMARK  324  A    between atoms: _798  and  _799
REMARK  325  A    between atoms: _809  and  _811
REMARK  326  A    between atoms: _811  and  _812
REMARK  327  A    between atoms: _811  and  _814
REMARK  328  A    between atoms: _814  and  _815
REMARK  329  A    between atoms: _818  and  _820
REMARK  330  A    between atoms: _820  and  _821
REMARK  331  A    between atoms: _820  and  _823
REMARK  332  A    between atoms: _823  and  _824
REMARK  333  A    between atoms: _829  and  _830
REMARK                            x       y       z     vdW  Elec       q    Type
REMARK                         _______ _______ _______ _____ _____    ______ ____
ROOT
ATOM      1  O   HOH     1     -20.897  22.612  22.562  0.00  0.00    +0.000 OA
ENDROOT
TORSDOF 0
REMARK  Name = ../refined-set-2016/3p9l/3p9l_pocket.pdb
REMARK  333 active torsions:
REMARK  status: ('A' for Active; 'I' for Inactive)
REMARK    1  A    between atoms: _1  and  _3
REMARK    2  A    between atoms: _3  and  _4
REMARK    3  A    between atoms: _3  and  _6
REMARK    4  A    between atoms: _6  and  _7
REMARK    5  A    between atoms: _10  and  _12
REMARK    6  A    between atoms: _12  and  _13
REMARK    7  A    between atoms: _12  and  _15
REMARK    8  A    between atoms: _15  and  _16
REMARK    9  A    between atoms: _16  and  _17
REMARK   10  A    between atoms: _17  and  _18
REMARK   11  A    between atoms: _27  and  _29
REMARK   12  A    between atoms: _29  and  _30
REMARK   13  A    between atoms: _29  and  _32
REMARK   14  A    between atoms: _32  and  _33
REMARK   15  A    between atoms: _38  and  _39
REMARK   16  A    between atoms: _41  and  _43
REMARK   17  A    between atoms: _43  and  _44
REMARK   18  A    between atoms: _43  and  _46
REMARK   19  A    between atoms: _46  and  _47
REMARK   20  A    between atoms: _53  and  _55
REMARK   21  A    between atoms: _55  and  _56
REMARK   22  A    between atoms: _55  and  _58
REMARK   23  A    between atoms: _61  and  _63
REMARK   24  A    between atoms: _63  and  _64
REMARK   25  A    between atoms: _63  and  _66
REMARK   26  A    between atoms: _66  and  _67
REMARK   27  A    between atoms: _70  and  _72
REMARK   28  A    between atoms: _72  and  _73
REMARK   29  A    between atoms: _72  and  _75
REMARK   30  A    between atoms: _75  and  _76
REMARK   31  A    between atoms: _81  and  _82
REMARK   32  A    between atoms: _84  and  _86
REMARK   33  A    between atoms: _86  and  _87
REMARK   34  A    between atoms: _86  and  _89
REMARK   35  A    between atoms: _89  and  _90
REMARK   36  A    between atoms: _90  and  _91
REMARK   37  A    between atoms: _93  and  _95
REMARK   38  A    between atoms: _95  and  _96
REMARK   39  A    between atoms: _95  and  _98
REMARK   40  A    between atoms: _98  and  _99
REMARK   41  A    between atoms: _99  and  _100
REMARK   42  A    between atoms: _103  and  _105
REMARK   43  A    between atoms: _105  and  _106
REMARK   44  A    between atoms: _105  and  _108
REMARK   45  A    between atoms: _111  and  _113
REMARK   46  A    between atoms: _113  and  _114
REMARK   47  A    between atoms: _116  and  _118
REMARK   48  A    between atoms: _118  and  _119
REMARK   49  A    between atoms: _118  and  _121
REMARK   50  A    between atoms: _124  and  _126
REMARK   51  A    between atoms: _126  and  _127
REMARK   52  A    between atoms: _126  and  _129
REMARK   53  A    between atoms: _129  and  _130
REMARK   54  A    between atoms: _136  and  _138
REMARK   55  A    between atoms: _138  and  _139
REMARK   56  A    between atoms: _138  and  _141
REMARK   57  A    between atoms: _144  and  _146
REMARK   58  A    between atoms: _146  and  _147
REMARK   59  A    between atoms: _146  and  _149
REMARK   60  A    between atoms: _149  and  _150
REMARK   61  A    between atoms: _156  and  _158
REMARK   62  A    between atoms: _158  and  _159
REMARK   63  A    between atoms: _158  and  _161
REMARK   64  A    between atoms: _161  and  _162
REMARK   65  A    between atoms: _167  and  _168
REMARK   66  A    between atoms: _170  and  _172
REMARK   67  A    between atoms: _172  and  _173
REMARK   68  A    between atoms: _172  and  _175
REMARK   69  A    between atoms: _175  and  _176
REMARK   70  A    between atoms: _176  and  _177
REMARK   71  A    between atoms: _179  and  _181
REMARK   72  A    between atoms: _181  and  _182
REMARK   73  A    between atoms: _181  and  _184
REMARK   74  A    between atoms: _184  and  _185
REMARK   75  A    between atoms: _190  and  _191
REMARK   76  A    between atoms: _193  and  _195
REMARK   77  A    between atoms: _195  and  _196
REMARK   78  A    between atoms: _195  and  _198
REMARK   79  A    between atoms: _198  and  _199
REMARK   80  A    between atoms: _199  and  _200
REMARK   81  A    between atoms: _200  and  _201
REMARK   82  A    between atoms: _210  and  _212
REMARK   83  A    between atoms: _212  and  _213
REMARK   84  A    between atoms: _212  and  _215
REMARK   85  A    between atoms: _215  and  _216
REMARK   86  A    between atoms: _216  and  _217
REMARK   87  A    between atoms: _220  and  _222
REMARK   88  A    between atoms: _222  and  _223
REMARK   89  A    between atoms: _222  and  _225
REMARK   90  A    between atoms: _225  and  _226
REMARK   91  A    between atoms: _226  and  _227
REMARK   92  A    between atoms: _232  and  _234
REMARK   93  A    between atoms: _234  and  _235
REMARK   94  A    between atoms: _234  and  _237
REMARK   95  A    between atoms: _237  and  _238
REMARK   96  A    between atoms: _238  and  _239
REMARK   97  A    between atoms: _239  and  _240
REMARK   98  A    between atoms: _240  and  _241
REMARK   99  A    between atoms: _245  and  _247
REMARK  100  A    between atoms: _247  and  _248
REMARK  101  A    between atoms: _251  and  _253
REMARK  102  A    between atoms: _253  and  _254
REMARK  103  A    between atoms: _256  and  _258
REMARK  104  A    between atoms: _258  and  _259
REMARK  105  A    between atoms: _258  and  _261
REMARK  106  A    between atoms: _261  and  _262
REMARK  107  A    between atoms: _267  and  _269
REMARK  108  A    between atoms: _269  and  _270
REMARK  109  A    between atoms: _269  and  _272
REMARK  110  A    between atoms: _272  and  _273
REMARK  111  A    between atoms: _273  and  _274
REMARK  112  A    between atoms: _277  and  _279
REMARK  113  A    between atoms: _279  and  _280
REMARK  114  A    between atoms: _279  and  _282
REMARK  115  A    between atoms: _282  and  _283
REMARK  116  A    between atoms: _283  and  _284
REMARK  117  A    between atoms: _289  and  _291
REMARK  118  A    between atoms: _291  and  _292
REMARK  119  A    between atoms: _291  and  _294
REMARK  120  A    between atoms: _294  and  _295
REMARK  121  A    between atoms: _297  and  _299
REMARK  122  A    between atoms: _299  and  _300
REMARK  123  A    between atoms: _299  and  _302
REMARK  124  A    between atoms: _302  and  _303
REMARK  125  A    between atoms: _309  and  _311
REMARK  126  A    between atoms: _311  and  _312
REMARK  127  A    between atoms: _311  and  _314
REMARK  128  A    between atoms: _314  and  _315
REMARK  129  A    between atoms: _315  and  _316
REMARK  130  A    between atoms: _316  and  _317
REMARK  131  A    between atoms: _326  and  _328
REMARK  132  A    between atoms: _328  and  _329
REMARK  133  A    between atoms: _328  and  _331
REMARK  134  A    between atoms: _334  and  _336
REMARK  135  A    between atoms: _336  and  _337
REMARK  136  A    between atoms: _336  and  _339
REMARK  137  A    between atoms: _339  and  _340
REMARK  138  A    between atoms: _343  and  _345
REMARK  139  A    between atoms: _345  and  _346
REMARK  140  A    between atoms: _345  and  _348
REMARK  141  A    between atoms: _348  and  _349
REMARK  142  A    between atoms: _352  and  _354
REMARK  143  A    between atoms: _354  and  _355
REMARK  144  A    between atoms: _354  and  _357
REMARK  145  A    between atoms: _357  and  _358
REMARK  146  A    between atoms: _358  and  _359
REMARK  147  A    between atoms: _359  and  _360
REMARK  148  A    between atoms: _369  and  _371
REMARK  149  A    between atoms: _371  and  _372
REMARK  150  A    between atoms: _371  and  _374
REMARK  151  A    between atoms: _374  and  _375
REMARK  152  A    between atoms: _378  and  _380
REMARK  153  A    between atoms: _380  and  _381
REMARK  154  A    between atoms: _380  and  _383
REMARK  155  A    between atoms: _383  and  _384
REMARK  156  A    between atoms: _387  and  _389
REMARK  157  A    between atoms: _389  and  _390
REMARK  158  A    between atoms: _389  and  _392
REMARK  159  A    between atoms: _392  and  _393
REMARK  160  A    between atoms: _398  and  _399
REMARK  161  A    between atoms: _401  and  _403
REMARK  162  A    between atoms: _403  and  _404
REMARK  163  A    between atoms: _403  and  _406
REMARK  164  A    between atoms: _406  and  _407
REMARK  165  A    between atoms: _412  and  _413
REMARK  166  A    between atoms: _415  and  _417
REMARK  167  A    between atoms: _417  and  _418
REMARK  168  A    between atoms: _417  and  _420
REMARK  169  A    between atoms: _420  and  _421
REMARK  170  A    between atoms: _424  and  _426
REMARK  171  A    between atoms: _426  and  _427
REMARK  172  A    between atoms: _426  and  _429
REMARK  173  A    between atoms: _429  and  _430
REMARK  174  A    between atoms: _430  and  _431
REMARK  175  A    between atoms: _436  and  _438
REMARK  176  A    between atoms: _438  and  _439
REMARK  177  A    between atoms: _438  and  _441
REMARK  178  A    between atoms: _444  and  _446
REMARK  179  A    between atoms: _446  and  _447
REMARK  180  A    between atoms: _446  and  _449
REMARK  181  A    between atoms: _449  and  _450
REMARK  182  A    between atoms: _453  and  _455
REMARK  183  A    between atoms: _455  and  _456
REMARK  184  A    between atoms: _455  and  _458
REMARK  185  A    between atoms: _458  and  _459
REMARK  186  A    between atoms: _461  and  _463
REMARK  187  A    between atoms: _463  and  _464
REMARK  188  A    between atoms: _466  and  _468
REMARK  189  A    between atoms: _468  and  _469
REMARK  190  A    between atoms: _468  and  _471
REMARK  191  A    between atoms: _471  and  _472
REMARK  192  A    between atoms: _472  and  _774
REMARK  193  A    between atoms: _473  and  _475
REMARK  194  A    between atoms: _475  and  _476
REMARK  195  A    between atoms: _475  and  _478
REMARK  196  A    between atoms: _478  and  _479
REMARK  197  A    between atoms: _484  and  _485
REMARK  198  A    between atoms: _487  and  _489
REMARK  199  A    between atoms: _489  and  _490
REMARK  200  A    between atoms: _489  and  _492
REMARK  201  A    between atoms: _492  and  _493
REMARK  202  A    between atoms: _493  and  _494
REMARK  203  A    between atoms: _499  and  _501
REMARK  204  A    between atoms: _501  and  _502
REMARK  205  A    between atoms: _501  and  _504
REMARK  206  A    between atoms: _504  and  _505
REMARK  207  A    between atoms: _505  and  _506
REMARK  208  A    between atoms: _511  and  _513
REMARK  209  A    between atoms: _513  and  _514
REMARK  210  A    between atoms: _513  and  _516
REMARK  211  A    between atoms: _516  and  _517
REMARK  212  A    between atoms: _522  and  _523
REMARK  213  A    between atoms: _525  and  _527
REMARK  214  A    between atoms: _527  and  _528
REMARK  215  A    between atoms: _531  and  _533
REMARK  216  A    between atoms: _533  and  _534
REMARK  217  A    between atoms: _533  and  _536
REMARK  218  A    between atoms: _536  and  _537
REMARK  219  A    between atoms: _542  and  _543
REMARK  220  A    between atoms: _545  and  _547
REMARK  221  A    between atoms: _547  and  _548
REMARK  222  A    between atoms: _547  and  _550
REMARK  223  A    between atoms: _550  and  _551
REMARK  224  A    between atoms: _556  and  _557
REMARK  225  A    between atoms: _559  and  _561
REMARK  226  A    between atoms: _561  and  _562
REMARK  227  A    between atoms: _561  and  _564
REMARK  228  A    between atoms: _564  and  _565
REMARK  229  A    between atoms: _568  and  _570
REMARK  230  A    between atoms: _570  and  _571
REMARK  231  A    between atoms: _574  and  _576
REMARK  232  A    between atoms: _576  and  _577
REMARK  233  A    between atoms: _580  and  _582
REMARK  234  A    between atoms: _582  and  _583
REMARK  235  A    between atoms: _582  and  _585
REMARK  236  A    between atoms: _585  and  _586
REMARK  237  A    between atoms: _589  and  _591
REMARK  238  A    between atoms: _591  and  _592
REMARK  239  A    between atoms: _591  and  _594
REMARK  240  A    between atoms: _594  and  _595
REMARK  241  A    between atoms: _598  and  _600
REMARK  242  A    between atoms: _600  and  _601
REMARK  243  A    between atoms: _600  and  _603
REMARK  244  A    between atoms: _603  and  _604
REMARK  245  A    between atoms: _607  and  _609
REMARK  246  A    between atoms: _609  and  _610
REMARK  247  A    between atoms: _609  and  _612
REMARK  248  A    between atoms: _612  and  _613
REMARK  249  A    between atoms: _613  and  _614
REMARK  250  A    between atoms: _614  and  _615
REMARK  251  A    between atoms: _615  and  _616
REMARK  252  A    between atoms: _620  and  _622
REMARK  253  A    between atoms: _622  and  _623
REMARK  254  A    between atoms: _622  and  _625
REMARK  255  A    between atoms: _625  and  _626
REMARK  256  A    between atoms: _631  and  _633
REMARK  257  A    between atoms: _633  and  _634
REMARK  258  A    between atoms: _633  and  _636
REMARK  259  A    between atoms: _636  and  _637
REMARK  260  A    between atoms: _637  and  _638
REMARK  261  A    between atoms: _638  and  _639
REMARK  262  A    between atoms: _639  and  _640
REMARK  263  A    between atoms: _644  and  _646
REMARK  264  A    between atoms: _646  and  _647
REMARK  265  A    between atoms: _646  and  _649
REMARK  266  A    between atoms: _649  and  _650
REMARK  267  A    between atoms: _660  and  _662
REMARK  268  A    between atoms: _662  and  _663
REMARK  269  A    between atoms: _666  and  _668
REMARK  270  A    between atoms: _668  and  _669
REMARK  271  A    between atoms: _671  and  _673
REMARK  272  A    between atoms: _673  and  _674
REMARK  273  A    between atoms: _673  and  _676
REMARK  274  A    between atoms: _676  and  _677
REMARK  275  A    between atoms: _677  and  _678
REMARK  276  A    between atoms: _681  and  _683
REMARK  277  A    between atoms: _683  and  _684
REMARK  278  A    between atoms: _687  and  _689
REMARK  279  A    between atoms: _689  and  _690
REMARK  280  A    between atoms: _689  and  _692
REMARK  281  A    between atoms: _692  and  _693
REMARK  282  A    between atoms: _693  and  _694
REMARK  283  A    between atoms: _694  and  _695
REMARK  284  A    between atoms: _704  and  _706
REMARK  285  A    between atoms: _706  and  _707
REMARK  286  A    between atoms: _706  and  _709
REMARK  287  A    between atoms: _709  and  _710
REMARK  288  A    between atoms: _713  and  _715
REMARK  289  A    between atoms: _715  and  _716
REMARK  290  A    between atoms: _715  and  _718
REMARK  291  A    between atoms: _718  and  _719
REMARK  292  A    between atoms: _719  and  _720
REMARK  293  A    between atoms: _720  and  _721
REMARK  294  A    between atoms: _730  and  _732
REMARK  295  A    between atoms: _732  and  _733
REMARK  296  A    between atoms: _736  and  _738
REMARK  297  A    between atoms: _738  and  _739
REMARK  298  A    between atoms: _738  and  _741
REMARK  299  A    between atoms: _741  and  _742
REMARK  300  A    between atoms: _747  and  _748
REMARK  301  A    between atoms: _750  and  _752
REMARK  302  A    between atoms: _752  and  _753
REMARK  303  A    between atoms: _752  and  _755
REMARK  304  A    between atoms: _755  and  _756
REMARK  305  A    between atoms: _759  and  _761
REMARK  306  A    between atoms: _761  and  _762
REMARK  307  A    between atoms: _761  and  _764
REMARK  308  A    between atoms: _764  and  _765
REMARK  309  A    between atoms: _768  and  _770
REMARK  310  A    between atoms: _770  and  _771
REMARK  311  A    between atoms: _770  and  _773
REMARK  312  A    between atoms: _773  and  _774
REMARK  313  A    between atoms: _775  and  _777
REMARK  314  A    between atoms: _777  and  _778
REMARK  315  A    between atoms: _777  and  _780
REMARK  316  A    between atoms: _783  and  _785
REMARK  317  A    between atoms: _785  and  _786
REMARK  318  A    between atoms: _785  and  _788
REMARK  319  A    between atoms: _788  and  _789
REMARK  320  A    between atoms: _789  and  _790
REMARK  321  A    between atoms: _793  and  _795
REMARK  322  A    between atoms: _795  and  _796
REMARK  323  A    between atoms: _795  and  _798
REMARK  324  A    between atoms: _798  and  _799
REMARK  325  A    between atoms: _809  and  _811
REMARK  326  A    between atoms: _811  and  _812
REMARK  327  A    between atoms: _811  and  _814
REMARK  328  A    between atoms: _814  and  _815
REMARK  329  A    between atoms: _818  and  _820
REMARK  330  A    between atoms: _820  and  _821
REMARK  331  A    between atoms: _820  and  _823
REMARK  332  A    between atoms: _823  and  _824
REMARK  333  A    between atoms: _829  and  _830
REMARK                            x       y       z     vdW  Elec       q    Type
REMARK                         _______ _______ _______ _____ _____    ______ ____
ROOT
ATOM      1  O   HOH     1     -23.467  18.207  22.571  0.00  0.00    +0.000 OA
ENDROOT
TORSDOF 0
REMARK  Name = ../refined-set-2016/3p9l/3p9l_pocket.pdb
REMARK  333 active torsions:
REMARK  status: ('A' for Active; 'I' for Inactive)
REMARK    1  A    between atoms: _1  and  _3
REMARK    2  A    between atoms: _3  and  _4
REMARK    3  A    between atoms: _3  and  _6
REMARK    4  A    between atoms: _6  and  _7
REMARK    5  A    between atoms: _10  and  _12
REMARK    6  A    between atoms: _12  and  _13
REMARK    7  A    between atoms: _12  and  _15
REMARK    8  A    between atoms: _15  and  _16
REMARK    9  A    between atoms: _16  and  _17
REMARK   10  A    between atoms: _17  and  _18
REMARK   11  A    between atoms: _27  and  _29
REMARK   12  A    between atoms: _29  and  _30
REMARK   13  A    between atoms: _29  and  _32
REMARK   14  A    between atoms: _32  and  _33
REMARK   15  A    between atoms: _38  and  _39
REMARK   16  A    between atoms: _41  and  _43
REMARK   17  A    between atoms: _43  and  _44
REMARK   18  A    between atoms: _43  and  _46
REMARK   19  A    between atoms: _46  and  _47
REMARK   20  A    between atoms: _53  and  _55
REMARK   21  A    between atoms: _55  and  _56
REMARK   22  A    between atoms: _55  and  _58
REMARK   23  A    between atoms: _61  and  _63
REMARK   24  A    between atoms: _63  and  _64
REMARK   25  A    between atoms: _63  and  _66
REMARK   26  A    between atoms: _66  and  _67
REMARK   27  A    between atoms: _70  and  _72
REMARK   28  A    between atoms: _72  and  _73
REMARK   29  A    between atoms: _72  and  _75
REMARK   30  A    between atoms: _75  and  _76
REMARK   31  A    between atoms: _81  and  _82
REMARK   32  A    between atoms: _84  and  _86
REMARK   33  A    between atoms: _86  and  _87
REMARK   34  A    between atoms: _86  and  _89
REMARK   35  A    between atoms: _89  and  _90
REMARK   36  A    between atoms: _90  and  _91
REMARK   37  A    between atoms: _93  and  _95
REMARK   38  A    between atoms: _95  and  _96
REMARK   39  A    between atoms: _95  and  _98
REMARK   40  A    between atoms: _98  and  _99
REMARK   41  A    between atoms: _99  and  _100
REMARK   42  A    between atoms: _103  and  _105
REMARK   43  A    between atoms: _105  and  _106
REMARK   44  A    between atoms: _105  and  _108
REMARK   45  A    between atoms: _111  and  _113
REMARK   46  A    between atoms: _113  and  _114
REMARK   47  A    between atoms: _116  and  _118
REMARK   48  A    between atoms: _118  and  _119
REMARK   49  A    between atoms: _118  and  _121
REMARK   50  A    between atoms: _124  and  _126
REMARK   51  A    between atoms: _126  and  _127
REMARK   52  A    between atoms: _126  and  _129
REMARK   53  A    between atoms: _129  and  _130
REMARK   54  A    between atoms: _136  and  _138
REMARK   55  A    between atoms: _138  and  _139
REMARK   56  A    between atoms: _138  and  _141
REMARK   57  A    between atoms: _144  and  _146
REMARK   58  A    between atoms: _146  and  _147
REMARK   59  A    between atoms: _146  and  _149
REMARK   60  A    between atoms: _149  and  _150
REMARK   61  A    between atoms: _156  and  _158
REMARK   62  A    between atoms: _158  and  _159
REMARK   63  A    between atoms: _158  and  _161
REMARK   64  A    between atoms: _161  and  _162
REMARK   65  A    between atoms: _167  and  _168
REMARK   66  A    between atoms: _170  and  _172
REMARK   67  A    between atoms: _172  and  _173
REMARK   68  A    between atoms: _172  and  _175
REMARK   69  A    between atoms: _175  and  _176
REMARK   70  A    between atoms: _176  and  _177
REMARK   71  A    between atoms: _179  and  _181
REMARK   72  A    between atoms: _181  and  _182
REMARK   73  A    between atoms: _181  and  _184
REMARK   74  A    between atoms: _184  and  _185
REMARK   75  A    between atoms: _190  and  _191
REMARK   76  A    between atoms: _193  and  _195
REMARK   77  A    between atoms: _195  and  _196
REMARK   78  A    between atoms: _195  and  _198
REMARK   79  A    between atoms: _198  and  _199
REMARK   80  A    between atoms: _199  and  _200
REMARK   81  A    between atoms: _200  and  _201
REMARK   82  A    between atoms: _210  and  _212
REMARK   83  A    between atoms: _212  and  _213
REMARK   84  A    between atoms: _212  and  _215
REMARK   85  A    between atoms: _215  and  _216
REMARK   86  A    between atoms: _216  and  _217
REMARK   87  A    between atoms: _220  and  _222
REMARK   88  A    between atoms: _222  and  _223
REMARK   89  A    between atoms: _222  and  _225
REMARK   90  A    between atoms: _225  and  _226
REMARK   91  A    between atoms: _226  and  _227
REMARK   92  A    between atoms: _232  and  _234
REMARK   93  A    between atoms: _234  and  _235
REMARK   94  A    between atoms: _234  and  _237
REMARK   95  A    between atoms: _237  and  _238
REMARK   96  A    between atoms: _238  and  _239
REMARK   97  A    between atoms: _239  and  _240
REMARK   98  A    between atoms: _240  and  _241
REMARK   99  A    between atoms: _245  and  _247
REMARK  100  A    between atoms: _247  and  _248
REMARK  101  A    between atoms: _251  and  _253
REMARK  102  A    between atoms: _253  and  _254
REMARK  103  A    between atoms: _256  and  _258
REMARK  104  A    between atoms: _258  and  _259
REMARK  105  A    between atoms: _258  and  _261
REMARK  106  A    between atoms: _261  and  _262
REMARK  107  A    between atoms: _267  and  _269
REMARK  108  A    between atoms: _269  and  _270
REMARK  109  A    between atoms: _269  and  _272
REMARK  110  A    between atoms: _272  and  _273
REMARK  111  A    between atoms: _273  and  _274
REMARK  112  A    between atoms: _277  and  _279
REMARK  113  A    between atoms: _279  and  _280
REMARK  114  A    between atoms: _279  and  _282
REMARK  115  A    between atoms: _282  and  _283
REMARK  116  A    between atoms: _283  and  _284
REMARK  117  A    between atoms: _289  and  _291
REMARK  118  A    between atoms: _291  and  _292
REMARK  119  A    between atoms: _291  and  _294
REMARK  120  A    between atoms: _294  and  _295
REMARK  121  A    between atoms: _297  and  _299
REMARK  122  A    between atoms: _299  and  _300
REMARK  123  A    between atoms: _299  and  _302
REMARK  124  A    between atoms: _302  and  _303
REMARK  125  A    between atoms: _309  and  _311
REMARK  126  A    between atoms: _311  and  _312
REMARK  127  A    between atoms: _311  and  _314
REMARK  128  A    between atoms: _314  and  _315
REMARK  129  A    between atoms: _315  and  _316
REMARK  130  A    between atoms: _316  and  _317
REMARK  131  A    between atoms: _326  and  _328
REMARK  132  A    between atoms: _328  and  _329
REMARK  133  A    between atoms: _328  and  _331
REMARK  134  A    between atoms: _334  and  _336
REMARK  135  A    between atoms: _336  and  _337
REMARK  136  A    between atoms: _336  and  _339
REMARK  137  A    between atoms: _339  and  _340
REMARK  138  A    between atoms: _343  and  _345
REMARK  139  A    between atoms: _345  and  _346
REMARK  140  A    between atoms: _345  and  _348
REMARK  141  A    between atoms: _348  and  _349
REMARK  142  A    between atoms: _352  and  _354
REMARK  143  A    between atoms: _354  and  _355
REMARK  144  A    between atoms: _354  and  _357
REMARK  145  A    between atoms: _357  and  _358
REMARK  146  A    between atoms: _358  and  _359
REMARK  147  A    between atoms: _359  and  _360
REMARK  148  A    between atoms: _369  and  _371
REMARK  149  A    between atoms: _371  and  _372
REMARK  150  A    between atoms: _371  and  _374
REMARK  151  A    between atoms: _374  and  _375
REMARK  152  A    between atoms: _378  and  _380
REMARK  153  A    between atoms: _380  and  _381
REMARK  154  A    between atoms: _380  and  _383
REMARK  155  A    between atoms: _383  and  _384
REMARK  156  A    between atoms: _387  and  _389
REMARK  157  A    between atoms: _389  and  _390
REMARK  158  A    between atoms: _389  and  _392
REMARK  159  A    between atoms: _392  and  _393
REMARK  160  A    between atoms: _398  and  _399
REMARK  161  A    between atoms: _401  and  _403
REMARK  162  A    between atoms: _403  and  _404
REMARK  163  A    between atoms: _403  and  _406
REMARK  164  A    between atoms: _406  and  _407
REMARK  165  A    between atoms: _412  and  _413
REMARK  166  A    between atoms: _415  and  _417
REMARK  167  A    between atoms: _417  and  _418
REMARK  168  A    between atoms: _417  and  _420
REMARK  169  A    between atoms: _420  and  _421
REMARK  170  A    between atoms: _424  and  _426
REMARK  171  A    between atoms: _426  and  _427
REMARK  172  A    between atoms: _426  and  _429
REMARK  173  A    between atoms: _429  and  _430
REMARK  174  A    between atoms: _430  and  _431
REMARK  175  A    between atoms: _436  and  _438
REMARK  176  A    between atoms: _438  and  _439
REMARK  177  A    between atoms: _438  and  _441
REMARK  178  A    between atoms: _444  and  _446
REMARK  179  A    between atoms: _446  and  _447
REMARK  180  A    between atoms: _446  and  _449
REMARK  181  A    between atoms: _449  and  _450
REMARK  182  A    between atoms: _453  and  _455
REMARK  183  A    between atoms: _455  and  _456
REMARK  184  A    between atoms: _455  and  _458
REMARK  185  A    between atoms: _458  and  _459
REMARK  186  A    between atoms: _461  and  _463
REMARK  187  A    between atoms: _463  and  _464
REMARK  188  A    between atoms: _466  and  _468
REMARK  189  A    between atoms: _468  and  _469
REMARK  190  A    between atoms: _468  and  _471
REMARK  191  A    between atoms: _471  and  _472
REMARK  192  A    between atoms: _472  and  _774
REMARK  193  A    between atoms: _473  and  _475
REMARK  194  A    between atoms: _475  and  _476
REMARK  195  A    between atoms: _475  and  _478
REMARK  196  A    between atoms: _478  and  _479
REMARK  197  A    between atoms: _484  and  _485
REMARK  198  A    between atoms: _487  and  _489
REMARK  199  A    between atoms: _489  and  _490
REMARK  200  A    between atoms: _489  and  _492
REMARK  201  A    between atoms: _492  and  _493
REMARK  202  A    between atoms: _493  and  _494
REMARK  203  A    between atoms: _499  and  _501
REMARK  204  A    between atoms: _501  and  _502
REMARK  205  A    between atoms: _501  and  _504
REMARK  206  A    between atoms: _504  and  _505
REMARK  207  A    between atoms: _505  and  _506
REMARK  208  A    between atoms: _511  and  _513
REMARK  209  A    between atoms: _513  and  _514
REMARK  210  A    between atoms: _513  and  _516
REMARK  211  A    between atoms: _516  and  _517
REMARK  212  A    between atoms: _522  and  _523
REMARK  213  A    between atoms: _525  and  _527
REMARK  214  A    between atoms: _527  and  _528
REMARK  215  A    between atoms: _531  and  _533
REMARK  216  A    between atoms: _533  and  _534
REMARK  217  A    between atoms: _533  and  _536
REMARK  218  A    between atoms: _536  and  _537
REMARK  219  A    between atoms: _542  and  _543
REMARK  220  A    between atoms: _545  and  _547
REMARK  221  A    between atoms: _547  and  _548
REMARK  222  A    between atoms: _547  and  _550
REMARK  223  A    between atoms: _550  and  _551
REMARK  224  A    between atoms: _556  and  _557
REMARK  225  A    between atoms: _559  and  _561
REMARK  226  A    between atoms: _561  and  _562
REMARK  227  A    between atoms: _561  and  _564
REMARK  228  A    between atoms: _564  and  _565
REMARK  229  A    between atoms: _568  and  _570
REMARK  230  A    between atoms: _570  and  _571
REMARK  231  A    between atoms: _574  and  _576
REMARK  232  A    between atoms: _576  and  _577
REMARK  233  A    between atoms: _580  and  _582
REMARK  234  A    between atoms: _582  and  _583
REMARK  235  A    between atoms: _582  and  _585
REMARK  236  A    between atoms: _585  and  _586
REMARK  237  A    between atoms: _589  and  _591
REMARK  238  A    between atoms: _591  and  _592
REMARK  239  A    between atoms: _591  and  _594
REMARK  240  A    between atoms: _594  and  _595
REMARK  241  A    between atoms: _598  and  _600
REMARK  242  A    between atoms: _600  and  _601
REMARK  243  A    between atoms: _600  and  _603
REMARK  244  A    between atoms: _603  and  _604
REMARK  245  A    between atoms: _607  and  _609
REMARK  246  A    between atoms: _609  and  _610
REMARK  247  A    between atoms: _609  and  _612
REMARK  248  A    between atoms: _612  and  _613
REMARK  249  A    between atoms: _613  and  _614
REMARK  250  A    between atoms: _614  and  _615
REMARK  251  A    between atoms: _615  and  _616
REMARK  252  A    between atoms: _620  and  _622
REMARK  253  A    between atoms: _622  and  _623
REMARK  254  A    between atoms: _622  and  _625
REMARK  255  A    between atoms: _625  and  _626
REMARK  256  A    between atoms: _631  and  _633
REMARK  257  A    between atoms: _633  and  _634
REMARK  258  A    between atoms: _633  and  _636
REMARK  259  A    between atoms: _636  and  _637
REMARK  260  A    between atoms: _637  and  _638
REMARK  261  A    between atoms: _638  and  _639
REMARK  262  A    between atoms: _639  and  _640
REMARK  263  A    between atoms: _644  and  _646
REMARK  264  A    between atoms: _646  and  _647
REMARK  265  A    between atoms: _646  and  _649
REMARK  266  A    between atoms: _649  and  _650
REMARK  267  A    between atoms: _660  and  _662
REMARK  268  A    between atoms: _662  and  _663
REMARK  269  A    between atoms: _666  and  _668
REMARK  270  A    between atoms: _668  and  _669
REMARK  271  A    between atoms: _671  and  _673
REMARK  272  A    between atoms: _673  and  _674
REMARK  273  A    between atoms: _673  and  _676
REMARK  274  A    between atoms: _676  and  _677
REMARK  275  A    between atoms: _677  and  _678
REMARK  276  A    between atoms: _681  and  _683
REMARK  277  A    between atoms: _683  and  _684
REMARK  278  A    between atoms: _687  and  _689
REMARK  279  A    between atoms: _689  and  _690
REMARK  280  A    between atoms: _689  and  _692
REMARK  281  A    between atoms: _692  and  _693
REMARK  282  A    between atoms: _693  and  _694
REMARK  283  A    between atoms: _694  and  _695
REMARK  284  A    between atoms: _704  and  _706
REMARK  285  A    between atoms: _706  and  _707
REMARK  286  A    between atoms: _706  and  _709
REMARK  287  A    between atoms: _709  and  _710
REMARK  288  A    between atoms: _713  and  _715
REMARK  289  A    between atoms: _715  and  _716
REMARK  290  A    between atoms: _715  and  _718
REMARK  291  A    between atoms: _718  and  _719
REMARK  292  A    between atoms: _719  and  _720
REMARK  293  A    between atoms: _720  and  _721
REMARK  294  A    between atoms: _730  and  _732
REMARK  295  A    between atoms: _732  and  _733
REMARK  296  A    between atoms: _736  and  _738
REMARK  297  A    between atoms: _738  and  _739
REMARK  298  A    between atoms: _738  and  _741
REMARK  299  A    between atoms: _741  and  _742
REMARK  300  A    between atoms: _747  and  _748
REMARK  301  A    between atoms: _750  and  _752
REMARK  302  A    between atoms: _752  and  _753
REMARK  303  A    between atoms: _752  and  _755
REMARK  304  A    between atoms: _755  and  _756
REMARK  305  A    between atoms: _759  and  _761
REMARK  306  A    between atoms: _761  and  _762
REMARK  307  A    between atoms: _761  and  _764
REMARK  308  A    between atoms: _764  and  _765
REMARK  309  A    between atoms: _768  and  _770
REMARK  310  A    between atoms: _770  and  _771
REMARK  311  A    between atoms: _770  and  _773
REMARK  312  A    between atoms: _773  and  _774
REMARK  313  A    between atoms: _775  and  _777
REMARK  314  A    between atoms: _777  and  _778
REMARK  315  A    between atoms: _777  and  _780
REMARK  316  A    between atoms: _783  and  _785
REMARK  317  A    between atoms: _785  and  _786
REMARK  318  A    between atoms: _785  and  _788
REMARK  319  A    between atoms: _788  and  _789
REMARK  320  A    between atoms: _789  and  _790
REMARK  321  A    between atoms: _793  and  _795
REMARK  322  A    between atoms: _795  and  _796
REMARK  323  A    between atoms: _795  and  _798
REMARK  324  A    between atoms: _798  and  _799
REMARK  325  A    between atoms: _809  and  _811
REMARK  326  A    between atoms: _811  and  _812
REMARK  327  A    between atoms: _811  and  _814
REMARK  328  A    between atoms: _814  and  _815
REMARK  329  A    between atoms: _818  and  _820
REMARK  330  A    between atoms: _820  and  _821
REMARK  331  A    between atoms: _820  and  _823
REMARK  332  A    between atoms: _823  and  _824
REMARK  333  A    between atoms: _829  and  _830
REMARK                            x       y       z     vdW  Elec       q    Type
REMARK                         _______ _______ _______ _____ _____    ______ ____
ROOT
ATOM      1  O   HOH     1     -21.210  24.410  30.730  0.00  0.00    +0.000 OA
ENDROOT
TORSDOF 0
REMARK  Name = ../refined-set-2016/3p9l/3p9l_pocket.pdb
REMARK  333 active torsions:
REMARK  status: ('A' for Active; 'I' for Inactive)
REMARK    1  A    between atoms: _1  and  _3
REMARK    2  A    between atoms: _3  and  _4
REMARK    3  A    between atoms: _3  and  _6
REMARK    4  A    between atoms: _6  and  _7
REMARK    5  A    between atoms: _10  and  _12
REMARK    6  A    between atoms: _12  and  _13
REMARK    7  A    between atoms: _12  and  _15
REMARK    8  A    between atoms: _15  and  _16
REMARK    9  A    between atoms: _16  and  _17
REMARK   10  A    between atoms: _17  and  _18
REMARK   11  A    between atoms: _27  and  _29
REMARK   12  A    between atoms: _29  and  _30
REMARK   13  A    between atoms: _29  and  _32
REMARK   14  A    between atoms: _32  and  _33
REMARK   15  A    between atoms: _38  and  _39
REMARK   16  A    between atoms: _41  and  _43
REMARK   17  A    between atoms: _43  and  _44
REMARK   18  A    between atoms: _43  and  _46
REMARK   19  A    between atoms: _46  and  _47
REMARK   20  A    between atoms: _53  and  _55
REMARK   21  A    between atoms: _55  and  _56
REMARK   22  A    between atoms: _55  and  _58
REMARK   23  A    between atoms: _61  and  _63
REMARK   24  A    between atoms: _63  and  _64
REMARK   25  A    between atoms: _63  and  _66
REMARK   26  A    between atoms: _66  and  _67
REMARK   27  A    between atoms: _70  and  _72
REMARK   28  A    between atoms: _72  and  _73
REMARK   29  A    between atoms: _72  and  _75
REMARK   30  A    between atoms: _75  and  _76
REMARK   31  A    between atoms: _81  and  _82
REMARK   32  A    between atoms: _84  and  _86
REMARK   33  A    between atoms: _86  and  _87
REMARK   34  A    between atoms: _86  and  _89
REMARK   35  A    between atoms: _89  and  _90
REMARK   36  A    between atoms: _90  and  _91
REMARK   37  A    between atoms: _93  and  _95
REMARK   38  A    between atoms: _95  and  _96
REMARK   39  A    between atoms: _95  and  _98
REMARK   40  A    between atoms: _98  and  _99
REMARK   41  A    between atoms: _99  and  _100
REMARK   42  A    between atoms: _103  and  _105
REMARK   43  A    between atoms: _105  and  _106
REMARK   44  A    between atoms: _105  and  _108
REMARK   45  A    between atoms: _111  and  _113
REMARK   46  A    between atoms: _113  and  _114
REMARK   47  A    between atoms: _116  and  _118
REMARK   48  A    between atoms: _118  and  _119
REMARK   49  A    between atoms: _118  and  _121
REMARK   50  A    between atoms: _124  and  _126
REMARK   51  A    between atoms: _126  and  _127
REMARK   52  A    between atoms: _126  and  _129
REMARK   53  A    between atoms: _129  and  _130
REMARK   54  A    between atoms: _136  and  _138
REMARK   55  A    between atoms: _138  and  _139
REMARK   56  A    between atoms: _138  and  _141
REMARK   57  A    between atoms: _144  and  _146
REMARK   58  A    between atoms: _146  and  _147
REMARK   59  A    between atoms: _146  and  _149
REMARK   60  A    between atoms: _149  and  _150
REMARK   61  A    between atoms: _156  and  _158
REMARK   62  A    between atoms: _158  and  _159
REMARK   63  A    between atoms: _158  and  _161
REMARK   64  A    between atoms: _161  and  _162
REMARK   65  A    between atoms: _167  and  _168
REMARK   66  A    between atoms: _170  and  _172
REMARK   67  A    between atoms: _172  and  _173
REMARK   68  A    between atoms: _172  and  _175
REMARK   69  A    between atoms: _175  and  _176
REMARK   70  A    between atoms: _176  and  _177
REMARK   71  A    between atoms: _179  and  _181
REMARK   72  A    between atoms: _181  and  _182
REMARK   73  A    between atoms: _181  and  _184
REMARK   74  A    between atoms: _184  and  _185
REMARK   75  A    between atoms: _190  and  _191
REMARK   76  A    between atoms: _193  and  _195
REMARK   77  A    between atoms: _195  and  _196
REMARK   78  A    between atoms: _195  and  _198
REMARK   79  A    between atoms: _198  and  _199
REMARK   80  A    between atoms: _199  and  _200
REMARK   81  A    between atoms: _200  and  _201
REMARK   82  A    between atoms: _210  and  _212
REMARK   83  A    between atoms: _212  and  _213
REMARK   84  A    between atoms: _212  and  _215
REMARK   85  A    between atoms: _215  and  _216
REMARK   86  A    between atoms: _216  and  _217
REMARK   87  A    between atoms: _220  and  _222
REMARK   88  A    between atoms: _222  and  _223
REMARK   89  A    between atoms: _222  and  _225
REMARK   90  A    between atoms: _225  and  _226
REMARK   91  A    between atoms: _226  and  _227
REMARK   92  A    between atoms: _232  and  _234
REMARK   93  A    between atoms: _234  and  _235
REMARK   94  A    between atoms: _234  and  _237
REMARK   95  A    between atoms: _237  and  _238
REMARK   96  A    between atoms: _238  and  _239
REMARK   97  A    between atoms: _239  and  _240
REMARK   98  A    between atoms: _240  and  _241
REMARK   99  A    between atoms: _245  and  _247
REMARK  100  A    between atoms: _247  and  _248
REMARK  101  A    between atoms: _251  and  _253
REMARK  102  A    between atoms: _253  and  _254
REMARK  103  A    between atoms: _256  and  _258
REMARK  104  A    between atoms: _258  and  _259
REMARK  105  A    between atoms: _258  and  _261
REMARK  106  A    between atoms: _261  and  _262
REMARK  107  A    between atoms: _267  and  _269
REMARK  108  A    between atoms: _269  and  _270
REMARK  109  A    between atoms: _269  and  _272
REMARK  110  A    between atoms: _272  and  _273
REMARK  111  A    between atoms: _273  and  _274
REMARK  112  A    between atoms: _277  and  _279
REMARK  113  A    between atoms: _279  and  _280
REMARK  114  A    between atoms: _279  and  _282
REMARK  115  A    between atoms: _282  and  _283
REMARK  116  A    between atoms: _283  and  _284
REMARK  117  A    between atoms: _289  and  _291
REMARK  118  A    between atoms: _291  and  _292
REMARK  119  A    between atoms: _291  and  _294
REMARK  120  A    between atoms: _294  and  _295
REMARK  121  A    between atoms: _297  and  _299
REMARK  122  A    between atoms: _299  and  _300
REMARK  123  A    between atoms: _299  and  _302
REMARK  124  A    between atoms: _302  and  _303
REMARK  125  A    between atoms: _309  and  _311
REMARK  126  A    between atoms: _311  and  _312
REMARK  127  A    between atoms: _311  and  _314
REMARK  128  A    between atoms: _314  and  _315
REMARK  129  A    between atoms: _315  and  _316
REMARK  130  A    between atoms: _316  and  _317
REMARK  131  A    between atoms: _326  and  _328
REMARK  132  A    between atoms: _328  and  _329
REMARK  133  A    between atoms: _328  and  _331
REMARK  134  A    between atoms: _334  and  _336
REMARK  135  A    between atoms: _336  and  _337
REMARK  136  A    between atoms: _336  and  _339
REMARK  137  A    between atoms: _339  and  _340
REMARK  138  A    between atoms: _343  and  _345
REMARK  139  A    between atoms: _345  and  _346
REMARK  140  A    between atoms: _345  and  _348
REMARK  141  A    between atoms: _348  and  _349
REMARK  142  A    between atoms: _352  and  _354
REMARK  143  A    between atoms: _354  and  _355
REMARK  144  A    between atoms: _354  and  _357
REMARK  145  A    between atoms: _357  and  _358
REMARK  146  A    between atoms: _358  and  _359
REMARK  147  A    between atoms: _359  and  _360
REMARK  148  A    between atoms: _369  and  _371
REMARK  149  A    between atoms: _371  and  _372
REMARK  150  A    between atoms: _371  and  _374
REMARK  151  A    between atoms: _374  and  _375
REMARK  152  A    between atoms: _378  and  _380
REMARK  153  A    between atoms: _380  and  _381
REMARK  154  A    between atoms: _380  and  _383
REMARK  155  A    between atoms: _383  and  _384
REMARK  156  A    between atoms: _387  and  _389
REMARK  157  A    between atoms: _389  and  _390
REMARK  158  A    between atoms: _389  and  _392
REMARK  159  A    between atoms: _392  and  _393
REMARK  160  A    between atoms: _398  and  _399
REMARK  161  A    between atoms: _401  and  _403
REMARK  162  A    between atoms: _403  and  _404
REMARK  163  A    between atoms: _403  and  _406
REMARK  164  A    between atoms: _406  and  _407
REMARK  165  A    between atoms: _412  and  _413
REMARK  166  A    between atoms: _415  and  _417
REMARK  167  A    between atoms: _417  and  _418
REMARK  168  A    between atoms: _417  and  _420
REMARK  169  A    between atoms: _420  and  _421
REMARK  170  A    between atoms: _424  and  _426
REMARK  171  A    between atoms: _426  and  _427
REMARK  172  A    between atoms: _426  and  _429
REMARK  173  A    between atoms: _429  and  _430
REMARK  174  A    between atoms: _430  and  _431
REMARK  175  A    between atoms: _436  and  _438
REMARK  176  A    between atoms: _438  and  _439
REMARK  177  A    between atoms: _438  and  _441
REMARK  178  A    between atoms: _444  and  _446
REMARK  179  A    between atoms: _446  and  _447
REMARK  180  A    between atoms: _446  and  _449
REMARK  181  A    between atoms: _449  and  _450
REMARK  182  A    between atoms: _453  and  _455
REMARK  183  A    between atoms: _455  and  _456
REMARK  184  A    between atoms: _455  and  _458
REMARK  185  A    between atoms: _458  and  _459
REMARK  186  A    between atoms: _461  and  _463
REMARK  187  A    between atoms: _463  and  _464
REMARK  188  A    between atoms: _466  and  _468
REMARK  189  A    between atoms: _468  and  _469
REMARK  190  A    between atoms: _468  and  _471
REMARK  191  A    between atoms: _471  and  _472
REMARK  192  A    between atoms: _472  and  _774
REMARK  193  A    between atoms: _473  and  _475
REMARK  194  A    between atoms: _475  and  _476
REMARK  195  A    between atoms: _475  and  _478
REMARK  196  A    between atoms: _478  and  _479
REMARK  197  A    between atoms: _484  and  _485
REMARK  198  A    between atoms: _487  and  _489
REMARK  199  A    between atoms: _489  and  _490
REMARK  200  A    between atoms: _489  and  _492
REMARK  201  A    between atoms: _492  and  _493
REMARK  202  A    between atoms: _493  and  _494
REMARK  203  A    between atoms: _499  and  _501
REMARK  204  A    between atoms: _501  and  _502
REMARK  205  A    between atoms: _501  and  _504
REMARK  206  A    between atoms: _504  and  _505
REMARK  207  A    between atoms: _505  and  _506
REMARK  208  A    between atoms: _511  and  _513
REMARK  209  A    between atoms: _513  and  _514
REMARK  210  A    between atoms: _513  and  _516
REMARK  211  A    between atoms: _516  and  _517
REMARK  212  A    between atoms: _522  and  _523
REMARK  213  A    between atoms: _525  and  _527
REMARK  214  A    between atoms: _527  and  _528
REMARK  215  A    between atoms: _531  and  _533
REMARK  216  A    between atoms: _533  and  _534
REMARK  217  A    between atoms: _533  and  _536
REMARK  218  A    between atoms: _536  and  _537
REMARK  219  A    between atoms: _542  and  _543
REMARK  220  A    between atoms: _545  and  _547
REMARK  221  A    between atoms: _547  and  _548
REMARK  222  A    between atoms: _547  and  _550
REMARK  223  A    between atoms: _550  and  _551
REMARK  224  A    between atoms: _556  and  _557
REMARK  225  A    between atoms: _559  and  _561
REMARK  226  A    between atoms: _561  and  _562
REMARK  227  A    between atoms: _561  and  _564
REMARK  228  A    between atoms: _564  and  _565
REMARK  229  A    between atoms: _568  and  _570
REMARK  230  A    between atoms: _570  and  _571
REMARK  231  A    between atoms: _574  and  _576
REMARK  232  A    between atoms: _576  and  _577
REMARK  233  A    between atoms: _580  and  _582
REMARK  234  A    between atoms: _582  and  _583
REMARK  235  A    between atoms: _582  and  _585
REMARK  236  A    between atoms: _585  and  _586
REMARK  237  A    between atoms: _589  and  _591
REMARK  238  A    between atoms: _591  and  _592
REMARK  239  A    between atoms: _591  and  _594
REMARK  240  A    between atoms: _594  and  _595
REMARK  241  A    between atoms: _598  and  _600
REMARK  242  A    between atoms: _600  and  _601
REMARK  243  A    between atoms: _600  and  _603
REMARK  244  A    between atoms: _603  and  _604
REMARK  245  A    between atoms: _607  and  _609
REMARK  246  A    between atoms: _609  and  _610
REMARK  247  A    between atoms: _609  and  _612
REMARK  248  A    between atoms: _612  and  _613
REMARK  249  A    between atoms: _613  and  _614
REMARK  250  A    between atoms: _614  and  _615
REMARK  251  A    between atoms: _615  and  _616
REMARK  252  A    between atoms: _620  and  _622
REMARK  253  A    between atoms: _622  and  _623
REMARK  254  A    between atoms: _622  and  _625
REMARK  255  A    between atoms: _625  and  _626
REMARK  256  A    between atoms: _631  and  _633
REMARK  257  A    between atoms: _633  and  _634
REMARK  258  A    between atoms: _633  and  _636
REMARK  259  A    between atoms: _636  and  _637
REMARK  260  A    between atoms: _637  and  _638
REMARK  261  A    between atoms: _638  and  _639
REMARK  262  A    between atoms: _639  and  _640
REMARK  263  A    between atoms: _644  and  _646
REMARK  264  A    between atoms: _646  and  _647
REMARK  265  A    between atoms: _646  and  _649
REMARK  266  A    between atoms: _649  and  _650
REMARK  267  A    between atoms: _660  and  _662
REMARK  268  A    between atoms: _662  and  _663
REMARK  269  A    between atoms: _666  and  _668
REMARK  270  A    between atoms: _668  and  _669
REMARK  271  A    between atoms: _671  and  _673
REMARK  272  A    between atoms: _673  and  _674
REMARK  273  A    between atoms: _673  and  _676
REMARK  274  A    between atoms: _676  and  _677
REMARK  275  A    between atoms: _677  and  _678
REMARK  276  A    between atoms: _681  and  _683
REMARK  277  A    between atoms: _683  and  _684
REMARK  278  A    between atoms: _687  and  _689
REMARK  279  A    between atoms: _689  and  _690
REMARK  280  A    between atoms: _689  and  _692
REMARK  281  A    between atoms: _692  and  _693
REMARK  282  A    between atoms: _693  and  _694
REMARK  283  A    between atoms: _694  and  _695
REMARK  284  A    between atoms: _704  and  _706
REMARK  285  A    between atoms: _706  and  _707
REMARK  286  A    between atoms: _706  and  _709
REMARK  287  A    between atoms: _709  and  _710
REMARK  288  A    between atoms: _713  and  _715
REMARK  289  A    between atoms: _715  and  _716
REMARK  290  A    between atoms: _715  and  _718
REMARK  291  A    between atoms: _718  and  _719
REMARK  292  A    between atoms: _719  and  _720
REMARK  293  A    between atoms: _720  and  _721
REMARK  294  A    between atoms: _730  and  _732
REMARK  295  A    between atoms: _732  and  _733
REMARK  296  A    between atoms: _736  and  _738
REMARK  297  A    between atoms: _738  and  _739
REMARK  298  A    between atoms: _738  and  _741
REMARK  299  A    between atoms: _741  and  _742
REMARK  300  A    between atoms: _747  and  _748
REMARK  301  A    between atoms: _750  and  _752
REMARK  302  A    between atoms: _752  and  _753
REMARK  303  A    between atoms: _752  and  _755
REMARK  304  A    between atoms: _755  and  _756
REMARK  305  A    between atoms: _759  and  _761
REMARK  306  A    between atoms: _761  and  _762
REMARK  307  A    between atoms: _761  and  _764
REMARK  308  A    between atoms: _764  and  _765
REMARK  309  A    between atoms: _768  and  _770
REMARK  310  A    between atoms: _770  and  _771
REMARK  311  A    between atoms: _770  and  _773
REMARK  312  A    between atoms: _773  and  _774
REMARK  313  A    between atoms: _775  and  _777
REMARK  314  A    between atoms: _777  and  _778
REMARK  315  A    between atoms: _777  and  _780
REMARK  316  A    between atoms: _783  and  _785
REMARK  317  A    between atoms: _785  and  _786
REMARK  318  A    between atoms: _785  and  _788
REMARK  319  A    between atoms: _788  and  _789
REMARK  320  A    between atoms: _789  and  _790
REMARK  321  A    between atoms: _793  and  _795
REMARK  322  A    between atoms: _795  and  _796
REMARK  323  A    between atoms: _795  and  _798
REMARK  324  A    between atoms: _798  and  _799
REMARK  325  A    between atoms: _809  and  _811
REMARK  326  A    between atoms: _811  and  _812
REMARK  327  A    between atoms: _811  and  _814
REMARK  328  A    between atoms: _814  and  _815
REMARK  329  A    between atoms: _818  and  _820
REMARK  330  A    between atoms: _820  and  _821
REMARK  331  A    between atoms: _820  and  _823
REMARK  332  A    between atoms: _823  and  _824
REMARK  333  A    between atoms: _829  and  _830
REMARK                            x       y       z     vdW  Elec       q    Type
REMARK                         _______ _______ _______ _____ _____    ______ ____
ROOT
ATOM      1  O   HOH     1     -25.802  15.925  26.646  0.00  0.00    +0.000 OA
ENDROOT
TORSDOF 0
REMARK  Name = ../refined-set-2016/3p9l/3p9l_pocket.pdb
REMARK  333 active torsions:
REMARK  status: ('A' for Active; 'I' for Inactive)
REMARK    1  A    between atoms: _1  and  _3
REMARK    2  A    between atoms: _3  and  _4
REMARK    3  A    between atoms: _3  and  _6
REMARK    4  A    between atoms: _6  and  _7
REMARK    5  A    between atoms: _10  and  _12
REMARK    6  A    between atoms: _12  and  _13
REMARK    7  A    between atoms: _12  and  _15
REMARK    8  A    between atoms: _15  and  _16
REMARK    9  A    between atoms: _16  and  _17
REMARK   10  A    between atoms: _17  and  _18
REMARK   11  A    between atoms: _27  and  _29
REMARK   12  A    between atoms: _29  and  _30
REMARK   13  A    between atoms: _29  and  _32
REMARK   14  A    between atoms: _32  and  _33
REMARK   15  A    between atoms: _38  and  _39
REMARK   16  A    between atoms: _41  and  _43
REMARK   17  A    between atoms: _43  and  _44
REMARK   18  A    between atoms: _43  and  _46
REMARK   19  A    between atoms: _46  and  _47
REMARK   20  A    between atoms: _53  and  _55
REMARK   21  A    between atoms: _55  and  _56
REMARK   22  A    between atoms: _55  and  _58
REMARK   23  A    between atoms: _61  and  _63
REMARK   24  A    between atoms: _63  and  _64
REMARK   25  A    between atoms: _63  and  _66
REMARK   26  A    between atoms: _66  and  _67
REMARK   27  A    between atoms: _70  and  _72
REMARK   28  A    between atoms: _72  and  _73
REMARK   29  A    between atoms: _72  and  _75
REMARK   30  A    between atoms: _75  and  _76
REMARK   31  A    between atoms: _81  and  _82
REMARK   32  A    between atoms: _84  and  _86
REMARK   33  A    between atoms: _86  and  _87
REMARK   34  A    between atoms: _86  and  _89
REMARK   35  A    between atoms: _89  and  _90
REMARK   36  A    between atoms: _90  and  _91
REMARK   37  A    between atoms: _93  and  _95
REMARK   38  A    between atoms: _95  and  _96
REMARK   39  A    between atoms: _95  and  _98
REMARK   40  A    between atoms: _98  and  _99
REMARK   41  A    between atoms: _99  and  _100
REMARK   42  A    between atoms: _103  and  _105
REMARK   43  A    between atoms: _105  and  _106
REMARK   44  A    between atoms: _105  and  _108
REMARK   45  A    between atoms: _111  and  _113
REMARK   46  A    between atoms: _113  and  _114
REMARK   47  A    between atoms: _116  and  _118
REMARK   48  A    between atoms: _118  and  _119
REMARK   49  A    between atoms: _118  and  _121
REMARK   50  A    between atoms: _124  and  _126
REMARK   51  A    between atoms: _126  and  _127
REMARK   52  A    between atoms: _126  and  _129
REMARK   53  A    between atoms: _129  and  _130
REMARK   54  A    between atoms: _136  and  _138
REMARK   55  A    between atoms: _138  and  _139
REMARK   56  A    between atoms: _138  and  _141
REMARK   57  A    between atoms: _144  and  _146
REMARK   58  A    between atoms: _146  and  _147
REMARK   59  A    between atoms: _146  and  _149
REMARK   60  A    between atoms: _149  and  _150
REMARK   61  A    between atoms: _156  and  _158
REMARK   62  A    between atoms: _158  and  _159
REMARK   63  A    between atoms: _158  and  _161
REMARK   64  A    between atoms: _161  and  _162
REMARK   65  A    between atoms: _167  and  _168
REMARK   66  A    between atoms: _170  and  _172
REMARK   67  A    between atoms: _172  and  _173
REMARK   68  A    between atoms: _172  and  _175
REMARK   69  A    between atoms: _175  and  _176
REMARK   70  A    between atoms: _176  and  _177
REMARK   71  A    between atoms: _179  and  _181
REMARK   72  A    between atoms: _181  and  _182
REMARK   73  A    between atoms: _181  and  _184
REMARK   74  A    between atoms: _184  and  _185
REMARK   75  A    between atoms: _190  and  _191
REMARK   76  A    between atoms: _193  and  _195
REMARK   77  A    between atoms: _195  and  _196
REMARK   78  A    between atoms: _195  and  _198
REMARK   79  A    between atoms: _198  and  _199
REMARK   80  A    between atoms: _199  and  _200
REMARK   81  A    between atoms: _200  and  _201
REMARK   82  A    between atoms: _210  and  _212
REMARK   83  A    between atoms: _212  and  _213
REMARK   84  A    between atoms: _212  and  _215
REMARK   85  A    between atoms: _215  and  _216
REMARK   86  A    between atoms: _216  and  _217
REMARK   87  A    between atoms: _220  and  _222
REMARK   88  A    between atoms: _222  and  _223
REMARK   89  A    between atoms: _222  and  _225
REMARK   90  A    between atoms: _225  and  _226
REMARK   91  A    between atoms: _226  and  _227
REMARK   92  A    between atoms: _232  and  _234
REMARK   93  A    between atoms: _234  and  _235
REMARK   94  A    between atoms: _234  and  _237
REMARK   95  A    between atoms: _237  and  _238
REMARK   96  A    between atoms: _238  and  _239
REMARK   97  A    between atoms: _239  and  _240
REMARK   98  A    between atoms: _240  and  _241
REMARK   99  A    between atoms: _245  and  _247
REMARK  100  A    between atoms: _247  and  _248
REMARK  101  A    between atoms: _251  and  _253
REMARK  102  A    between atoms: _253  and  _254
REMARK  103  A    between atoms: _256  and  _258
REMARK  104  A    between atoms: _258  and  _259
REMARK  105  A    between atoms: _258  and  _261
REMARK  106  A    between atoms: _261  and  _262
REMARK  107  A    between atoms: _267  and  _269
REMARK  108  A    between atoms: _269  and  _270
REMARK  109  A    between atoms: _269  and  _272
REMARK  110  A    between atoms: _272  and  _273
REMARK  111  A    between atoms: _273  and  _274
REMARK  112  A    between atoms: _277  and  _279
REMARK  113  A    between atoms: _279  and  _280
REMARK  114  A    between atoms: _279  and  _282
REMARK  115  A    between atoms: _282  and  _283
REMARK  116  A    between atoms: _283  and  _284
REMARK  117  A    between atoms: _289  and  _291
REMARK  118  A    between atoms: _291  and  _292
REMARK  119  A    between atoms: _291  and  _294
REMARK  120  A    between atoms: _294  and  _295
REMARK  121  A    between atoms: _297  and  _299
REMARK  122  A    between atoms: _299  and  _300
REMARK  123  A    between atoms: _299  and  _302
REMARK  124  A    between atoms: _302  and  _303
REMARK  125  A    between atoms: _309  and  _311
REMARK  126  A    between atoms: _311  and  _312
REMARK  127  A    between atoms: _311  and  _314
REMARK  128  A    between atoms: _314  and  _315
REMARK  129  A    between atoms: _315  and  _316
REMARK  130  A    between atoms: _316  and  _317
REMARK  131  A    between atoms: _326  and  _328
REMARK  132  A    between atoms: _328  and  _329
REMARK  133  A    between atoms: _328  and  _331
REMARK  134  A    between atoms: _334  and  _336
REMARK  135  A    between atoms: _336  and  _337
REMARK  136  A    between atoms: _336  and  _339
REMARK  137  A    between atoms: _339  and  _340
REMARK  138  A    between atoms: _343  and  _345
REMARK  139  A    between atoms: _345  and  _346
REMARK  140  A    between atoms: _345  and  _348
REMARK  141  A    between atoms: _348  and  _349
REMARK  142  A    between atoms: _352  and  _354
REMARK  143  A    between atoms: _354  and  _355
REMARK  144  A    between atoms: _354  and  _357
REMARK  145  A    between atoms: _357  and  _358
REMARK  146  A    between atoms: _358  and  _359
REMARK  147  A    between atoms: _359  and  _360
REMARK  148  A    between atoms: _369  and  _371
REMARK  149  A    between atoms: _371  and  _372
REMARK  150  A    between atoms: _371  and  _374
REMARK  151  A    between atoms: _374  and  _375
REMARK  152  A    between atoms: _378  and  _380
REMARK  153  A    between atoms: _380  and  _381
REMARK  154  A    between atoms: _380  and  _383
REMARK  155  A    between atoms: _383  and  _384
REMARK  156  A    between atoms: _387  and  _389
REMARK  157  A    between atoms: _389  and  _390
REMARK  158  A    between atoms: _389  and  _392
REMARK  159  A    between atoms: _392  and  _393
REMARK  160  A    between atoms: _398  and  _399
REMARK  161  A    between atoms: _401  and  _403
REMARK  162  A    between atoms: _403  and  _404
REMARK  163  A    between atoms: _403  and  _406
REMARK  164  A    between atoms: _406  and  _407
REMARK  165  A    between atoms: _412  and  _413
REMARK  166  A    between atoms: _415  and  _417
REMARK  167  A    between atoms: _417  and  _418
REMARK  168  A    between atoms: _417  and  _420
REMARK  169  A    between atoms: _420  and  _421
REMARK  170  A    between atoms: _424  and  _426
REMARK  171  A    between atoms: _426  and  _427
REMARK  172  A    between atoms: _426  and  _429
REMARK  173  A    between atoms: _429  and  _430
REMARK  174  A    between atoms: _430  and  _431
REMARK  175  A    between atoms: _436  and  _438
REMARK  176  A    between atoms: _438  and  _439
REMARK  177  A    between atoms: _438  and  _441
REMARK  178  A    between atoms: _444  and  _446
REMARK  179  A    between atoms: _446  and  _447
REMARK  180  A    between atoms: _446  and  _449
REMARK  181  A    between atoms: _449  and  _450
REMARK  182  A    between atoms: _453  and  _455
REMARK  183  A    between atoms: _455  and  _456
REMARK  184  A    between atoms: _455  and  _458
REMARK  185  A    between atoms: _458  and  _459
REMARK  186  A    between atoms: _461  and  _463
REMARK  187  A    between atoms: _463  and  _464
REMARK  188  A    between atoms: _466  and  _468
REMARK  189  A    between atoms: _468  and  _469
REMARK  190  A    between atoms: _468  and  _471
REMARK  191  A    between atoms: _471  and  _472
REMARK  192  A    between atoms: _472  and  _774
REMARK  193  A    between atoms: _473  and  _475
REMARK  194  A    between atoms: _475  and  _476
REMARK  195  A    between atoms: _475  and  _478
REMARK  196  A    between atoms: _478  and  _479
REMARK  197  A    between atoms: _484  and  _485
REMARK  198  A    between atoms: _487  and  _489
REMARK  199  A    between atoms: _489  and  _490
REMARK  200  A    between atoms: _489  and  _492
REMARK  201  A    between atoms: _492  and  _493
REMARK  202  A    between atoms: _493  and  _494
REMARK  203  A    between atoms: _499  and  _501
REMARK  204  A    between atoms: _501  and  _502
REMARK  205  A    between atoms: _501  and  _504
REMARK  206  A    between atoms: _504  and  _505
REMARK  207  A    between atoms: _505  and  _506
REMARK  208  A    between atoms: _511  and  _513
REMARK  209  A    between atoms: _513  and  _514
REMARK  210  A    between atoms: _513  and  _516
REMARK  211  A    between atoms: _516  and  _517
REMARK  212  A    between atoms: _522  and  _523
REMARK  213  A    between atoms: _525  and  _527
REMARK  214  A    between atoms: _527  and  _528
REMARK  215  A    between atoms: _531  and  _533
REMARK  216  A    between atoms: _533  and  _534
REMARK  217  A    between atoms: _533  and  _536
REMARK  218  A    between atoms: _536  and  _537
REMARK  219  A    between atoms: _542  and  _543
REMARK  220  A    between atoms: _545  and  _547
REMARK  221  A    between atoms: _547  and  _548
REMARK  222  A    between atoms: _547  and  _550
REMARK  223  A    between atoms: _550  and  _551
REMARK  224  A    between atoms: _556  and  _557
REMARK  225  A    between atoms: _559  and  _561
REMARK  226  A    between atoms: _561  and  _562
REMARK  227  A    between atoms: _561  and  _564
REMARK  228  A    between atoms: _564  and  _565
REMARK  229  A    between atoms: _568  and  _570
REMARK  230  A    between atoms: _570  and  _571
REMARK  231  A    between atoms: _574  and  _576
REMARK  232  A    between atoms: _576  and  _577
REMARK  233  A    between atoms: _580  and  _582
REMARK  234  A    between atoms: _582  and  _583
REMARK  235  A    between atoms: _582  and  _585
REMARK  236  A    between atoms: _585  and  _586
REMARK  237  A    between atoms: _589  and  _591
REMARK  238  A    between atoms: _591  and  _592
REMARK  239  A    between atoms: _591  and  _594
REMARK  240  A    between atoms: _594  and  _595
REMARK  241  A    between atoms: _598  and  _600
REMARK  242  A    between atoms: _600  and  _601
REMARK  243  A    between atoms: _600  and  _603
REMARK  244  A    between atoms: _603  and  _604
REMARK  245  A    between atoms: _607  and  _609
REMARK  246  A    between atoms: _609  and  _610
REMARK  247  A    between atoms: _609  and  _612
REMARK  248  A    between atoms: _612  and  _613
REMARK  249  A    between atoms: _613  and  _614
REMARK  250  A    between atoms: _614  and  _615
REMARK  251  A    between atoms: _615  and  _616
REMARK  252  A    between atoms: _620  and  _622
REMARK  253  A    between atoms: _622  and  _623
REMARK  254  A    between atoms: _622  and  _625
REMARK  255  A    between atoms: _625  and  _626
REMARK  256  A    between atoms: _631  and  _633
REMARK  257  A    between atoms: _633  and  _634
REMARK  258  A    between atoms: _633  and  _636
REMARK  259  A    between atoms: _636  and  _637
REMARK  260  A    between atoms: _637  and  _638
REMARK  261  A    between atoms: _638  and  _639
REMARK  262  A    between atoms: _639  and  _640
REMARK  263  A    between atoms: _644  and  _646
REMARK  264  A    between atoms: _646  and  _647
REMARK  265  A    between atoms: _646  and  _649
REMARK  266  A    between atoms: _649  and  _650
REMARK  267  A    between atoms: _660  and  _662
REMARK  268  A    between atoms: _662  and  _663
REMARK  269  A    between atoms: _666  and  _668
REMARK  270  A    between atoms: _668  and  _669
REMARK  271  A    between atoms: _671  and  _673
REMARK  272  A    between atoms: _673  and  _674
REMARK  273  A    between atoms: _673  and  _676
REMARK  274  A    between atoms: _676  and  _677
REMARK  275  A    between atoms: _677  and  _678
REMARK  276  A    between atoms: _681  and  _683
REMARK  277  A    between atoms: _683  and  _684
REMARK  278  A    between atoms: _687  and  _689
REMARK  279  A    between atoms: _689  and  _690
REMARK  280  A    between atoms: _689  and  _692
REMARK  281  A    between atoms: _692  and  _693
REMARK  282  A    between atoms: _693  and  _694
REMARK  283  A    between atoms: _694  and  _695
REMARK  284  A    between atoms: _704  and  _706
REMARK  285  A    between atoms: _706  and  _707
REMARK  286  A    between atoms: _706  and  _709
REMARK  287  A    between atoms: _709  and  _710
REMARK  288  A    between atoms: _713  and  _715
REMARK  289  A    between atoms: _715  and  _716
REMARK  290  A    between atoms: _715  and  _718
REMARK  291  A    between atoms: _718  and  _719
REMARK  292  A    between atoms: _719  and  _720
REMARK  293  A    between atoms: _720  and  _721
REMARK  294  A    between atoms: _730  and  _732
REMARK  295  A    between atoms: _732  and  _733
REMARK  296  A    between atoms: _736  and  _738
REMARK  297  A    between atoms: _738  and  _739
REMARK  298  A    between atoms: _738  and  _741
REMARK  299  A    between atoms: _741  and  _742
REMARK  300  A    between atoms: _747  and  _748
REMARK  301  A    between atoms: _750  and  _752
REMARK  302  A    between atoms: _752  and  _753
REMARK  303  A    between atoms: _752  and  _755
REMARK  304  A    between atoms: _755  and  _756
REMARK  305  A    between atoms: _759  and  _761
REMARK  306  A    between atoms: _761  and  _762
REMARK  307  A    between atoms: _761  and  _764
REMARK  308  A    between atoms: _764  and  _765
REMARK  309  A    between atoms: _768  and  _770
REMARK  310  A    between atoms: _770  and  _771
REMARK  311  A    between atoms: _770  and  _773
REMARK  312  A    between atoms: _773  and  _774
REMARK  313  A    between atoms: _775  and  _777
REMARK  314  A    between atoms: _777  and  _778
REMARK  315  A    between atoms: _777  and  _780
REMARK  316  A    between atoms: _783  and  _785
REMARK  317  A    between atoms: _785  and  _786
REMARK  318  A    between atoms: _785  and  _788
REMARK  319  A    between atoms: _788  and  _789
REMARK  320  A    between atoms: _789  and  _790
REMARK  321  A    between atoms: _793  and  _795
REMARK  322  A    between atoms: _795  and  _796
REMARK  323  A    between atoms: _795  and  _798
REMARK  324  A    between atoms: _798  and  _799
REMARK  325  A    between atoms: _809  and  _811
REMARK  326  A    between atoms: _811  and  _812
REMARK  327  A    between atoms: _811  and  _814
REMARK  328  A    between atoms: _814  and  _815
REMARK  329  A    between atoms: _818  and  _820
REMARK  330  A    between atoms: _820  and  _821
REMARK  331  A    between atoms: _820  and  _823
REMARK  332  A    between atoms: _823  and  _824
REMARK  333  A    between atoms: _829  and  _830
REMARK                            x       y       z     vdW  Elec       q    Type
REMARK                         _______ _______ _______ _____ _____    ______ ____
ROOT
ATOM      1  O   HOH     1     -23.990  -0.371  30.930  0.00  0.00    +0.000 OA
ENDROOT
TORSDOF 0
REMARK  Name = ../refined-set-2016/3p9l/3p9l_pocket.pdb
REMARK  333 active torsions:
REMARK  status: ('A' for Active; 'I' for Inactive)
REMARK    1  A    between atoms: _1  and  _3
REMARK    2  A    between atoms: _3  and  _4
REMARK    3  A    between atoms: _3  and  _6
REMARK    4  A    between atoms: _6  and  _7
REMARK    5  A    between atoms: _10  and  _12
REMARK    6  A    between atoms: _12  and  _13
REMARK    7  A    between atoms: _12  and  _15
REMARK    8  A    between atoms: _15  and  _16
REMARK    9  A    between atoms: _16  and  _17
REMARK   10  A    between atoms: _17  and  _18
REMARK   11  A    between atoms: _27  and  _29
REMARK   12  A    between atoms: _29  and  _30
REMARK   13  A    between atoms: _29  and  _32
REMARK   14  A    between atoms: _32  and  _33
REMARK   15  A    between atoms: _38  and  _39
REMARK   16  A    between atoms: _41  and  _43
REMARK   17  A    between atoms: _43  and  _44
REMARK   18  A    between atoms: _43  and  _46
REMARK   19  A    between atoms: _46  and  _47
REMARK   20  A    between atoms: _53  and  _55
REMARK   21  A    between atoms: _55  and  _56
REMARK   22  A    between atoms: _55  and  _58
REMARK   23  A    between atoms: _61  and  _63
REMARK   24  A    between atoms: _63  and  _64
REMARK   25  A    between atoms: _63  and  _66
REMARK   26  A    between atoms: _66  and  _67
REMARK   27  A    between atoms: _70  and  _72
REMARK   28  A    between atoms: _72  and  _73
REMARK   29  A    between atoms: _72  and  _75
REMARK   30  A    between atoms: _75  and  _76
REMARK   31  A    between atoms: _81  and  _82
REMARK   32  A    between atoms: _84  and  _86
REMARK   33  A    between atoms: _86  and  _87
REMARK   34  A    between atoms: _86  and  _89
REMARK   35  A    between atoms: _89  and  _90
REMARK   36  A    between atoms: _90  and  _91
REMARK   37  A    between atoms: _93  and  _95
REMARK   38  A    between atoms: _95  and  _96
REMARK   39  A    between atoms: _95  and  _98
REMARK   40  A    between atoms: _98  and  _99
REMARK   41  A    between atoms: _99  and  _100
REMARK   42  A    between atoms: _103  and  _105
REMARK   43  A    between atoms: _105  and  _106
REMARK   44  A    between atoms: _105  and  _108
REMARK   45  A    between atoms: _111  and  _113
REMARK   46  A    between atoms: _113  and  _114
REMARK   47  A    between atoms: _116  and  _118
REMARK   48  A    between atoms: _118  and  _119
REMARK   49  A    between atoms: _118  and  _121
REMARK   50  A    between atoms: _124  and  _126
REMARK   51  A    between atoms: _126  and  _127
REMARK   52  A    between atoms: _126  and  _129
REMARK   53  A    between atoms: _129  and  _130
REMARK   54  A    between atoms: _136  and  _138
REMARK   55  A    between atoms: _138  and  _139
REMARK   56  A    between atoms: _138  and  _141
REMARK   57  A    between atoms: _144  and  _146
REMARK   58  A    between atoms: _146  and  _147
REMARK   59  A    between atoms: _146  and  _149
REMARK   60  A    between atoms: _149  and  _150
REMARK   61  A    between atoms: _156  and  _158
REMARK   62  A    between atoms: _158  and  _159
REMARK   63  A    between atoms: _158  and  _161
REMARK   64  A    between atoms: _161  and  _162
REMARK   65  A    between atoms: _167  and  _168
REMARK   66  A    between atoms: _170  and  _172
REMARK   67  A    between atoms: _172  and  _173
REMARK   68  A    between atoms: _172  and  _175
REMARK   69  A    between atoms: _175  and  _176
REMARK   70  A    between atoms: _176  and  _177
REMARK   71  A    between atoms: _179  and  _181
REMARK   72  A    between atoms: _181  and  _182
REMARK   73  A    between atoms: _181  and  _184
REMARK   74  A    between atoms: _184  and  _185
REMARK   75  A    between atoms: _190  and  _191
REMARK   76  A    between atoms: _193  and  _195
REMARK   77  A    between atoms: _195  and  _196
REMARK   78  A    between atoms: _195  and  _198
REMARK   79  A    between atoms: _198  and  _199
REMARK   80  A    between atoms: _199  and  _200
REMARK   81  A    between atoms: _200  and  _201
REMARK   82  A    between atoms: _210  and  _212
REMARK   83  A    between atoms: _212  and  _213
REMARK   84  A    between atoms: _212  and  _215
REMARK   85  A    between atoms: _215  and  _216
REMARK   86  A    between atoms: _216  and  _217
REMARK   87  A    between atoms: _220  and  _222
REMARK   88  A    between atoms: _222  and  _223
REMARK   89  A    between atoms: _222  and  _225
REMARK   90  A    between atoms: _225  and  _226
REMARK   91  A    between atoms: _226  and  _227
REMARK   92  A    between atoms: _232  and  _234
REMARK   93  A    between atoms: _234  and  _235
REMARK   94  A    between atoms: _234  and  _237
REMARK   95  A    between atoms: _237  and  _238
REMARK   96  A    between atoms: _238  and  _239
REMARK   97  A    between atoms: _239  and  _240
REMARK   98  A    between atoms: _240  and  _241
REMARK   99  A    between atoms: _245  and  _247
REMARK  100  A    between atoms: _247  and  _248
REMARK  101  A    between atoms: _251  and  _253
REMARK  102  A    between atoms: _253  and  _254
REMARK  103  A    between atoms: _256  and  _258
REMARK  104  A    between atoms: _258  and  _259
REMARK  105  A    between atoms: _258  and  _261
REMARK  106  A    between atoms: _261  and  _262
REMARK  107  A    between atoms: _267  and  _269
REMARK  108  A    between atoms: _269  and  _270
REMARK  109  A    between atoms: _269  and  _272
REMARK  110  A    between atoms: _272  and  _273
REMARK  111  A    between atoms: _273  and  _274
REMARK  112  A    between atoms: _277  and  _279
REMARK  113  A    between atoms: _279  and  _280
REMARK  114  A    between atoms: _279  and  _282
REMARK  115  A    between atoms: _282  and  _283
REMARK  116  A    between atoms: _283  and  _284
REMARK  117  A    between atoms: _289  and  _291
REMARK  118  A    between atoms: _291  and  _292
REMARK  119  A    between atoms: _291  and  _294
REMARK  120  A    between atoms: _294  and  _295
REMARK  121  A    between atoms: _297  and  _299
REMARK  122  A    between atoms: _299  and  _300
REMARK  123  A    between atoms: _299  and  _302
REMARK  124  A    between atoms: _302  and  _303
REMARK  125  A    between atoms: _309  and  _311
REMARK  126  A    between atoms: _311  and  _312
REMARK  127  A    between atoms: _311  and  _314
REMARK  128  A    between atoms: _314  and  _315
REMARK  129  A    between atoms: _315  and  _316
REMARK  130  A    between atoms: _316  and  _317
REMARK  131  A    between atoms: _326  and  _328
REMARK  132  A    between atoms: _328  and  _329
REMARK  133  A    between atoms: _328  and  _331
REMARK  134  A    between atoms: _334  and  _336
REMARK  135  A    between atoms: _336  and  _337
REMARK  136  A    between atoms: _336  and  _339
REMARK  137  A    between atoms: _339  and  _340
REMARK  138  A    between atoms: _343  and  _345
REMARK  139  A    between atoms: _345  and  _346
REMARK  140  A    between atoms: _345  and  _348
REMARK  141  A    between atoms: _348  and  _349
REMARK  142  A    between atoms: _352  and  _354
REMARK  143  A    between atoms: _354  and  _355
REMARK  144  A    between atoms: _354  and  _357
REMARK  145  A    between atoms: _357  and  _358
REMARK  146  A    between atoms: _358  and  _359
REMARK  147  A    between atoms: _359  and  _360
REMARK  148  A    between atoms: _369  and  _371
REMARK  149  A    between atoms: _371  and  _372
REMARK  150  A    between atoms: _371  and  _374
REMARK  151  A    between atoms: _374  and  _375
REMARK  152  A    between atoms: _378  and  _380
REMARK  153  A    between atoms: _380  and  _381
REMARK  154  A    between atoms: _380  and  _383
REMARK  155  A    between atoms: _383  and  _384
REMARK  156  A    between atoms: _387  and  _389
REMARK  157  A    between atoms: _389  and  _390
REMARK  158  A    between atoms: _389  and  _392
REMARK  159  A    between atoms: _392  and  _393
REMARK  160  A    between atoms: _398  and  _399
REMARK  161  A    between atoms: _401  and  _403
REMARK  162  A    between atoms: _403  and  _404
REMARK  163  A    between atoms: _403  and  _406
REMARK  164  A    between atoms: _406  and  _407
REMARK  165  A    between atoms: _412  and  _413
REMARK  166  A    between atoms: _415  and  _417
REMARK  167  A    between atoms: _417  and  _418
REMARK  168  A    between atoms: _417  and  _420
REMARK  169  A    between atoms: _420  and  _421
REMARK  170  A    between atoms: _424  and  _426
REMARK  171  A    between atoms: _426  and  _427
REMARK  172  A    between atoms: _426  and  _429
REMARK  173  A    between atoms: _429  and  _430
REMARK  174  A    between atoms: _430  and  _431
REMARK  175  A    between atoms: _436  and  _438
REMARK  176  A    between atoms: _438  and  _439
REMARK  177  A    between atoms: _438  and  _441
REMARK  178  A    between atoms: _444  and  _446
REMARK  179  A    between atoms: _446  and  _447
REMARK  180  A    between atoms: _446  and  _449
REMARK  181  A    between atoms: _449  and  _450
REMARK  182  A    between atoms: _453  and  _455
REMARK  183  A    between atoms: _455  and  _456
REMARK  184  A    between atoms: _455  and  _458
REMARK  185  A    between atoms: _458  and  _459
REMARK  186  A    between atoms: _461  and  _463
REMARK  187  A    between atoms: _463  and  _464
REMARK  188  A    between atoms: _466  and  _468
REMARK  189  A    between atoms: _468  and  _469
REMARK  190  A    between atoms: _468  and  _471
REMARK  191  A    between atoms: _471  and  _472
REMARK  192  A    between atoms: _472  and  _774
REMARK  193  A    between atoms: _473  and  _475
REMARK  194  A    between atoms: _475  and  _476
REMARK  195  A    between atoms: _475  and  _478
REMARK  196  A    between atoms: _478  and  _479
REMARK  197  A    between atoms: _484  and  _485
REMARK  198  A    between atoms: _487  and  _489
REMARK  199  A    between atoms: _489  and  _490
REMARK  200  A    between atoms: _489  and  _492
REMARK  201  A    between atoms: _492  and  _493
REMARK  202  A    between atoms: _493  and  _494
REMARK  203  A    between atoms: _499  and  _501
REMARK  204  A    between atoms: _501  and  _502
REMARK  205  A    between atoms: _501  and  _504
REMARK  206  A    between atoms: _504  and  _505
REMARK  207  A    between atoms: _505  and  _506
REMARK  208  A    between atoms: _511  and  _513
REMARK  209  A    between atoms: _513  and  _514
REMARK  210  A    between atoms: _513  and  _516
REMARK  211  A    between atoms: _516  and  _517
REMARK  212  A    between atoms: _522  and  _523
REMARK  213  A    between atoms: _525  and  _527
REMARK  214  A    between atoms: _527  and  _528
REMARK  215  A    between atoms: _531  and  _533
REMARK  216  A    between atoms: _533  and  _534
REMARK  217  A    between atoms: _533  and  _536
REMARK  218  A    between atoms: _536  and  _537
REMARK  219  A    between atoms: _542  and  _543
REMARK  220  A    between atoms: _545  and  _547
REMARK  221  A    between atoms: _547  and  _548
REMARK  222  A    between atoms: _547  and  _550
REMARK  223  A    between atoms: _550  and  _551
REMARK  224  A    between atoms: _556  and  _557
REMARK  225  A    between atoms: _559  and  _561
REMARK  226  A    between atoms: _561  and  _562
REMARK  227  A    between atoms: _561  and  _564
REMARK  228  A    between atoms: _564  and  _565
REMARK  229  A    between atoms: _568  and  _570
REMARK  230  A    between atoms: _570  and  _571
REMARK  231  A    between atoms: _574  and  _576
REMARK  232  A    between atoms: _576  and  _577
REMARK  233  A    between atoms: _580  and  _582
REMARK  234  A    between atoms: _582  and  _583
REMARK  235  A    between atoms: _582  and  _585
REMARK  236  A    between atoms: _585  and  _586
REMARK  237  A    between atoms: _589  and  _591
REMARK  238  A    between atoms: _591  and  _592
REMARK  239  A    between atoms: _591  and  _594
REMARK  240  A    between atoms: _594  and  _595
REMARK  241  A    between atoms: _598  and  _600
REMARK  242  A    between atoms: _600  and  _601
REMARK  243  A    between atoms: _600  and  _603
REMARK  244  A    between atoms: _603  and  _604
REMARK  245  A    between atoms: _607  and  _609
REMARK  246  A    between atoms: _609  and  _610
REMARK  247  A    between atoms: _609  and  _612
REMARK  248  A    between atoms: _612  and  _613
REMARK  249  A    between atoms: _613  and  _614
REMARK  250  A    between atoms: _614  and  _615
REMARK  251  A    between atoms: _615  and  _616
REMARK  252  A    between atoms: _620  and  _622
REMARK  253  A    between atoms: _622  and  _623
REMARK  254  A    between atoms: _622  and  _625
REMARK  255  A    between atoms: _625  and  _626
REMARK  256  A    between atoms: _631  and  _633
REMARK  257  A    between atoms: _633  and  _634
REMARK  258  A    between atoms: _633  and  _636
REMARK  259  A    between atoms: _636  and  _637
REMARK  260  A    between atoms: _637  and  _638
REMARK  261  A    between atoms: _638  and  _639
REMARK  262  A    between atoms: _639  and  _640
REMARK  263  A    between atoms: _644  and  _646
REMARK  264  A    between atoms: _646  and  _647
REMARK  265  A    between atoms: _646  and  _649
REMARK  266  A    between atoms: _649  and  _650
REMARK  267  A    between atoms: _660  and  _662
REMARK  268  A    between atoms: _662  and  _663
REMARK  269  A    between atoms: _666  and  _668
REMARK  270  A    between atoms: _668  and  _669
REMARK  271  A    between atoms: _671  and  _673
REMARK  272  A    between atoms: _673  and  _674
REMARK  273  A    between atoms: _673  and  _676
REMARK  274  A    between atoms: _676  and  _677
REMARK  275  A    between atoms: _677  and  _678
REMARK  276  A    between atoms: _681  and  _683
REMARK  277  A    between atoms: _683  and  _684
REMARK  278  A    between atoms: _687  and  _689
REMARK  279  A    between atoms: _689  and  _690
REMARK  280  A    between atoms: _689  and  _692
REMARK  281  A    between atoms: _692  and  _693
REMARK  282  A    between atoms: _693  and  _694
REMARK  283  A    between atoms: _694  and  _695
REMARK  284  A    between atoms: _704  and  _706
REMARK  285  A    between atoms: _706  and  _707
REMARK  286  A    between atoms: _706  and  _709
REMARK  287  A    between atoms: _709  and  _710
REMARK  288  A    between atoms: _713  and  _715
REMARK  289  A    between atoms: _715  and  _716
REMARK  290  A    between atoms: _715  and  _718
REMARK  291  A    between atoms: _718  and  _719
REMARK  292  A    between atoms: _719  and  _720
REMARK  293  A    between atoms: _720  and  _721
REMARK  294  A    between atoms: _730  and  _732
REMARK  295  A    between atoms: _732  and  _733
REMARK  296  A    between atoms: _736  and  _738
REMARK  297  A    between atoms: _738  and  _739
REMARK  298  A    between atoms: _738  and  _741
REMARK  299  A    between atoms: _741  and  _742
REMARK  300  A    between atoms: _747  and  _748
REMARK  301  A    between atoms: _750  and  _752
REMARK  302  A    between atoms: _752  and  _753
REMARK  303  A    between atoms: _752  and  _755
REMARK  304  A    between atoms: _755  and  _756
REMARK  305  A    between atoms: _759  and  _761
REMARK  306  A    between atoms: _761  and  _762
REMARK  307  A    between atoms: _761  and  _764
REMARK  308  A    between atoms: _764  and  _765
REMARK  309  A    between atoms: _768  and  _770
REMARK  310  A    between atoms: _770  and  _771
REMARK  311  A    between atoms: _770  and  _773
REMARK  312  A    between atoms: _773  and  _774
REMARK  313  A    between atoms: _775  and  _777
REMARK  314  A    between atoms: _777  and  _778
REMARK  315  A    between atoms: _777  and  _780
REMARK  316  A    between atoms: _783  and  _785
REMARK  317  A    between atoms: _785  and  _786
REMARK  318  A    between atoms: _785  and  _788
REMARK  319  A    between atoms: _788  and  _789
REMARK  320  A    between atoms: _789  and  _790
REMARK  321  A    between atoms: _793  and  _795
REMARK  322  A    between atoms: _795  and  _796
REMARK  323  A    between atoms: _795  and  _798
REMARK  324  A    between atoms: _798  and  _799
REMARK  325  A    between atoms: _809  and  _811
REMARK  326  A    between atoms: _811  and  _812
REMARK  327  A    between atoms: _811  and  _814
REMARK  328  A    between atoms: _814  and  _815
REMARK  329  A    between atoms: _818  and  _820
REMARK  330  A    between atoms: _820  and  _821
REMARK  331  A    between atoms: _820  and  _823
REMARK  332  A    between atoms: _823  and  _824
REMARK  333  A    between atoms: _829  and  _830
REMARK                            x       y       z     vdW  Elec       q    Type
REMARK                         _______ _______ _______ _____ _____    ______ ____
ROOT
ATOM      1  O   HOH     1     -13.859  -2.737  30.235  0.00  0.00    +0.000 OA
ENDROOT
TORSDOF 0
REMARK  Name = ../refined-set-2016/3p9l/3p9l_pocket.pdb
REMARK  333 active torsions:
REMARK  status: ('A' for Active; 'I' for Inactive)
REMARK    1  A    between atoms: _1  and  _3
REMARK    2  A    between atoms: _3  and  _4
REMARK    3  A    between atoms: _3  and  _6
REMARK    4  A    between atoms: _6  and  _7
REMARK    5  A    between atoms: _10  and  _12
REMARK    6  A    between atoms: _12  and  _13
REMARK    7  A    between atoms: _12  and  _15
REMARK    8  A    between atoms: _15  and  _16
REMARK    9  A    between atoms: _16  and  _17
REMARK   10  A    between atoms: _17  and  _18
REMARK   11  A    between atoms: _27  and  _29
REMARK   12  A    between atoms: _29  and  _30
REMARK   13  A    between atoms: _29  and  _32
REMARK   14  A    between atoms: _32  and  _33
REMARK   15  A    between atoms: _38  and  _39
REMARK   16  A    between atoms: _41  and  _43
REMARK   17  A    between atoms: _43  and  _44
REMARK   18  A    between atoms: _43  and  _46
REMARK   19  A    between atoms: _46  and  _47
REMARK   20  A    between atoms: _53  and  _55
REMARK   21  A    between atoms: _55  and  _56
REMARK   22  A    between atoms: _55  and  _58
REMARK   23  A    between atoms: _61  and  _63
REMARK   24  A    between atoms: _63  and  _64
REMARK   25  A    between atoms: _63  and  _66
REMARK   26  A    between atoms: _66  and  _67
REMARK   27  A    between atoms: _70  and  _72
REMARK   28  A    between atoms: _72  and  _73
REMARK   29  A    between atoms: _72  and  _75
REMARK   30  A    between atoms: _75  and  _76
REMARK   31  A    between atoms: _81  and  _82
REMARK   32  A    between atoms: _84  and  _86
REMARK   33  A    between atoms: _86  and  _87
REMARK   34  A    between atoms: _86  and  _89
REMARK   35  A    between atoms: _89  and  _90
REMARK   36  A    between atoms: _90  and  _91
REMARK   37  A    between atoms: _93  and  _95
REMARK   38  A    between atoms: _95  and  _96
REMARK   39  A    between atoms: _95  and  _98
REMARK   40  A    between atoms: _98  and  _99
REMARK   41  A    between atoms: _99  and  _100
REMARK   42  A    between atoms: _103  and  _105
REMARK   43  A    between atoms: _105  and  _106
REMARK   44  A    between atoms: _105  and  _108
REMARK   45  A    between atoms: _111  and  _113
REMARK   46  A    between atoms: _113  and  _114
REMARK   47  A    between atoms: _116  and  _118
REMARK   48  A    between atoms: _118  and  _119
REMARK   49  A    between atoms: _118  and  _121
REMARK   50  A    between atoms: _124  and  _126
REMARK   51  A    between atoms: _126  and  _127
REMARK   52  A    between atoms: _126  and  _129
REMARK   53  A    between atoms: _129  and  _130
REMARK   54  A    between atoms: _136  and  _138
REMARK   55  A    between atoms: _138  and  _139
REMARK   56  A    between atoms: _138  and  _141
REMARK   57  A    between atoms: _144  and  _146
REMARK   58  A    between atoms: _146  and  _147
REMARK   59  A    between atoms: _146  and  _149
REMARK   60  A    between atoms: _149  and  _150
REMARK   61  A    between atoms: _156  and  _158
REMARK   62  A    between atoms: _158  and  _159
REMARK   63  A    between atoms: _158  and  _161
REMARK   64  A    between atoms: _161  and  _162
REMARK   65  A    between atoms: _167  and  _168
REMARK   66  A    between atoms: _170  and  _172
REMARK   67  A    between atoms: _172  and  _173
REMARK   68  A    between atoms: _172  and  _175
REMARK   69  A    between atoms: _175  and  _176
REMARK   70  A    between atoms: _176  and  _177
REMARK   71  A    between atoms: _179  and  _181
REMARK   72  A    between atoms: _181  and  _182
REMARK   73  A    between atoms: _181  and  _184
REMARK   74  A    between atoms: _184  and  _185
REMARK   75  A    between atoms: _190  and  _191
REMARK   76  A    between atoms: _193  and  _195
REMARK   77  A    between atoms: _195  and  _196
REMARK   78  A    between atoms: _195  and  _198
REMARK   79  A    between atoms: _198  and  _199
REMARK   80  A    between atoms: _199  and  _200
REMARK   81  A    between atoms: _200  and  _201
REMARK   82  A    between atoms: _210  and  _212
REMARK   83  A    between atoms: _212  and  _213
REMARK   84  A    between atoms: _212  and  _215
REMARK   85  A    between atoms: _215  and  _216
REMARK   86  A    between atoms: _216  and  _217
REMARK   87  A    between atoms: _220  and  _222
REMARK   88  A    between atoms: _222  and  _223
REMARK   89  A    between atoms: _222  and  _225
REMARK   90  A    between atoms: _225  and  _226
REMARK   91  A    between atoms: _226  and  _227
REMARK   92  A    between atoms: _232  and  _234
REMARK   93  A    between atoms: _234  and  _235
REMARK   94  A    between atoms: _234  and  _237
REMARK   95  A    between atoms: _237  and  _238
REMARK   96  A    between atoms: _238  and  _239
REMARK   97  A    between atoms: _239  and  _240
REMARK   98  A    between atoms: _240  and  _241
REMARK   99  A    between atoms: _245  and  _247
REMARK  100  A    between atoms: _247  and  _248
REMARK  101  A    between atoms: _251  and  _253
REMARK  102  A    between atoms: _253  and  _254
REMARK  103  A    between atoms: _256  and  _258
REMARK  104  A    between atoms: _258  and  _259
REMARK  105  A    between atoms: _258  and  _261
REMARK  106  A    between atoms: _261  and  _262
REMARK  107  A    between atoms: _267  and  _269
REMARK  108  A    between atoms: _269  and  _270
REMARK  109  A    between atoms: _269  and  _272
REMARK  110  A    between atoms: _272  and  _273
REMARK  111  A    between atoms: _273  and  _274
REMARK  112  A    between atoms: _277  and  _279
REMARK  113  A    between atoms: _279  and  _280
REMARK  114  A    between atoms: _279  and  _282
REMARK  115  A    between atoms: _282  and  _283
REMARK  116  A    between atoms: _283  and  _284
REMARK  117  A    between atoms: _289  and  _291
REMARK  118  A    between atoms: _291  and  _292
REMARK  119  A    between atoms: _291  and  _294
REMARK  120  A    between atoms: _294  and  _295
REMARK  121  A    between atoms: _297  and  _299
REMARK  122  A    between atoms: _299  and  _300
REMARK  123  A    between atoms: _299  and  _302
REMARK  124  A    between atoms: _302  and  _303
REMARK  125  A    between atoms: _309  and  _311
REMARK  126  A    between atoms: _311  and  _312
REMARK  127  A    between atoms: _311  and  _314
REMARK  128  A    between atoms: _314  and  _315
REMARK  129  A    between atoms: _315  and  _316
REMARK  130  A    between atoms: _316  and  _317
REMARK  131  A    between atoms: _326  and  _328
REMARK  132  A    between atoms: _328  and  _329
REMARK  133  A    between atoms: _328  and  _331
REMARK  134  A    between atoms: _334  and  _336
REMARK  135  A    between atoms: _336  and  _337
REMARK  136  A    between atoms: _336  and  _339
REMARK  137  A    between atoms: _339  and  _340
REMARK  138  A    between atoms: _343  and  _345
REMARK  139  A    between atoms: _345  and  _346
REMARK  140  A    between atoms: _345  and  _348
REMARK  141  A    between atoms: _348  and  _349
REMARK  142  A    between atoms: _352  and  _354
REMARK  143  A    between atoms: _354  and  _355
REMARK  144  A    between atoms: _354  and  _357
REMARK  145  A    between atoms: _357  and  _358
REMARK  146  A    between atoms: _358  and  _359
REMARK  147  A    between atoms: _359  and  _360
REMARK  148  A    between atoms: _369  and  _371
REMARK  149  A    between atoms: _371  and  _372
REMARK  150  A    between atoms: _371  and  _374
REMARK  151  A    between atoms: _374  and  _375
REMARK  152  A    between atoms: _378  and  _380
REMARK  153  A    between atoms: _380  and  _381
REMARK  154  A    between atoms: _380  and  _383
REMARK  155  A    between atoms: _383  and  _384
REMARK  156  A    between atoms: _387  and  _389
REMARK  157  A    between atoms: _389  and  _390
REMARK  158  A    between atoms: _389  and  _392
REMARK  159  A    between atoms: _392  and  _393
REMARK  160  A    between atoms: _398  and  _399
REMARK  161  A    between atoms: _401  and  _403
REMARK  162  A    between atoms: _403  and  _404
REMARK  163  A    between atoms: _403  and  _406
REMARK  164  A    between atoms: _406  and  _407
REMARK  165  A    between atoms: _412  and  _413
REMARK  166  A    between atoms: _415  and  _417
REMARK  167  A    between atoms: _417  and  _418
REMARK  168  A    between atoms: _417  and  _420
REMARK  169  A    between atoms: _420  and  _421
REMARK  170  A    between atoms: _424  and  _426
REMARK  171  A    between atoms: _426  and  _427
REMARK  172  A    between atoms: _426  and  _429
REMARK  173  A    between atoms: _429  and  _430
REMARK  174  A    between atoms: _430  and  _431
REMARK  175  A    between atoms: _436  and  _438
REMARK  176  A    between atoms: _438  and  _439
REMARK  177  A    between atoms: _438  and  _441
REMARK  178  A    between atoms: _444  and  _446
REMARK  179  A    between atoms: _446  and  _447
REMARK  180  A    between atoms: _446  and  _449
REMARK  181  A    between atoms: _449  and  _450
REMARK  182  A    between atoms: _453  and  _455
REMARK  183  A    between atoms: _455  and  _456
REMARK  184  A    between atoms: _455  and  _458
REMARK  185  A    between atoms: _458  and  _459
REMARK  186  A    between atoms: _461  and  _463
REMARK  187  A    between atoms: _463  and  _464
REMARK  188  A    between atoms: _466  and  _468
REMARK  189  A    between atoms: _468  and  _469
REMARK  190  A    between atoms: _468  and  _471
REMARK  191  A    between atoms: _471  and  _472
REMARK  192  A    between atoms: _472  and  _774
REMARK  193  A    between atoms: _473  and  _475
REMARK  194  A    between atoms: _475  and  _476
REMARK  195  A    between atoms: _475  and  _478
REMARK  196  A    between atoms: _478  and  _479
REMARK  197  A    between atoms: _484  and  _485
REMARK  198  A    between atoms: _487  and  _489
REMARK  199  A    between atoms: _489  and  _490
REMARK  200  A    between atoms: _489  and  _492
REMARK  201  A    between atoms: _492  and  _493
REMARK  202  A    between atoms: _493  and  _494
REMARK  203  A    between atoms: _499  and  _501
REMARK  204  A    between atoms: _501  and  _502
REMARK  205  A    between atoms: _501  and  _504
REMARK  206  A    between atoms: _504  and  _505
REMARK  207  A    between atoms: _505  and  _506
REMARK  208  A    between atoms: _511  and  _513
REMARK  209  A    between atoms: _513  and  _514
REMARK  210  A    between atoms: _513  and  _516
REMARK  211  A    between atoms: _516  and  _517
REMARK  212  A    between atoms: _522  and  _523
REMARK  213  A    between atoms: _525  and  _527
REMARK  214  A    between atoms: _527  and  _528
REMARK  215  A    between atoms: _531  and  _533
REMARK  216  A    between atoms: _533  and  _534
REMARK  217  A    between atoms: _533  and  _536
REMARK  218  A    between atoms: _536  and  _537
REMARK  219  A    between atoms: _542  and  _543
REMARK  220  A    between atoms: _545  and  _547
REMARK  221  A    between atoms: _547  and  _548
REMARK  222  A    between atoms: _547  and  _550
REMARK  223  A    between atoms: _550  and  _551
REMARK  224  A    between atoms: _556  and  _557
REMARK  225  A    between atoms: _559  and  _561
REMARK  226  A    between atoms: _561  and  _562
REMARK  227  A    between atoms: _561  and  _564
REMARK  228  A    between atoms: _564  and  _565
REMARK  229  A    between atoms: _568  and  _570
REMARK  230  A    between atoms: _570  and  _571
REMARK  231  A    between atoms: _574  and  _576
REMARK  232  A    between atoms: _576  and  _577
REMARK  233  A    between atoms: _580  and  _582
REMARK  234  A    between atoms: _582  and  _583
REMARK  235  A    between atoms: _582  and  _585
REMARK  236  A    between atoms: _585  and  _586
REMARK  237  A    between atoms: _589  and  _591
REMARK  238  A    between atoms: _591  and  _592
REMARK  239  A    between atoms: _591  and  _594
REMARK  240  A    between atoms: _594  and  _595
REMARK  241  A    between atoms: _598  and  _600
REMARK  242  A    between atoms: _600  and  _601
REMARK  243  A    between atoms: _600  and  _603
REMARK  244  A    between atoms: _603  and  _604
REMARK  245  A    between atoms: _607  and  _609
REMARK  246  A    between atoms: _609  and  _610
REMARK  247  A    between atoms: _609  and  _612
REMARK  248  A    between atoms: _612  and  _613
REMARK  249  A    between atoms: _613  and  _614
REMARK  250  A    between atoms: _614  and  _615
REMARK  251  A    between atoms: _615  and  _616
REMARK  252  A    between atoms: _620  and  _622
REMARK  253  A    between atoms: _622  and  _623
REMARK  254  A    between atoms: _622  and  _625
REMARK  255  A    between atoms: _625  and  _626
REMARK  256  A    between atoms: _631  and  _633
REMARK  257  A    between atoms: _633  and  _634
REMARK  258  A    between atoms: _633  and  _636
REMARK  259  A    between atoms: _636  and  _637
REMARK  260  A    between atoms: _637  and  _638
REMARK  261  A    between atoms: _638  and  _639
REMARK  262  A    between atoms: _639  and  _640
REMARK  263  A    between atoms: _644  and  _646
REMARK  264  A    between atoms: _646  and  _647
REMARK  265  A    between atoms: _646  and  _649
REMARK  266  A    between atoms: _649  and  _650
REMARK  267  A    between atoms: _660  and  _662
REMARK  268  A    between atoms: _662  and  _663
REMARK  269  A    between atoms: _666  and  _668
REMARK  270  A    between atoms: _668  and  _669
REMARK  271  A    between atoms: _671  and  _673
REMARK  272  A    between atoms: _673  and  _674
REMARK  273  A    between atoms: _673  and  _676
REMARK  274  A    between atoms: _676  and  _677
REMARK  275  A    between atoms: _677  and  _678
REMARK  276  A    between atoms: _681  and  _683
REMARK  277  A    between atoms: _683  and  _684
REMARK  278  A    between atoms: _687  and  _689
REMARK  279  A    between atoms: _689  and  _690
REMARK  280  A    between atoms: _689  and  _692
REMARK  281  A    between atoms: _692  and  _693
REMARK  282  A    between atoms: _693  and  _694
REMARK  283  A    between atoms: _694  and  _695
REMARK  284  A    between atoms: _704  and  _706
REMARK  285  A    between atoms: _706  and  _707
REMARK  286  A    between atoms: _706  and  _709
REMARK  287  A    between atoms: _709  and  _710
REMARK  288  A    between atoms: _713  and  _715
REMARK  289  A    between atoms: _715  and  _716
REMARK  290  A    between atoms: _715  and  _718
REMARK  291  A    between atoms: _718  and  _719
REMARK  292  A    between atoms: _719  and  _720
REMARK  293  A    between atoms: _720  and  _721
REMARK  294  A    between atoms: _730  and  _732
REMARK  295  A    between atoms: _732  and  _733
REMARK  296  A    between atoms: _736  and  _738
REMARK  297  A    between atoms: _738  and  _739
REMARK  298  A    between atoms: _738  and  _741
REMARK  299  A    between atoms: _741  and  _742
REMARK  300  A    between atoms: _747  and  _748
REMARK  301  A    between atoms: _750  and  _752
REMARK  302  A    between atoms: _752  and  _753
REMARK  303  A    between atoms: _752  and  _755
REMARK  304  A    between atoms: _755  and  _756
REMARK  305  A    between atoms: _759  and  _761
REMARK  306  A    between atoms: _761  and  _762
REMARK  307  A    between atoms: _761  and  _764
REMARK  308  A    between atoms: _764  and  _765
REMARK  309  A    between atoms: _768  and  _770
REMARK  310  A    between atoms: _770  and  _771
REMARK  311  A    between atoms: _770  and  _773
REMARK  312  A    between atoms: _773  and  _774
REMARK  313  A    between atoms: _775  and  _777
REMARK  314  A    between atoms: _777  and  _778
REMARK  315  A    between atoms: _777  and  _780
REMARK  316  A    between atoms: _783  and  _785
REMARK  317  A    between atoms: _785  and  _786
REMARK  318  A    between atoms: _785  and  _788
REMARK  319  A    between atoms: _788  and  _789
REMARK  320  A    between atoms: _789  and  _790
REMARK  321  A    between atoms: _793  and  _795
REMARK  322  A    between atoms: _795  and  _796
REMARK  323  A    between atoms: _795  and  _798
REMARK  324  A    between atoms: _798  and  _799
REMARK  325  A    between atoms: _809  and  _811
REMARK  326  A    between atoms: _811  and  _812
REMARK  327  A    between atoms: _811  and  _814
REMARK  328  A    between atoms: _814  and  _815
REMARK  329  A    between atoms: _818  and  _820
REMARK  330  A    between atoms: _820  and  _821
REMARK  331  A    between atoms: _820  and  _823
REMARK  332  A    between atoms: _823  and  _824
REMARK  333  A    between atoms: _829  and  _830
REMARK                            x       y       z     vdW  Elec       q    Type
REMARK                         _______ _______ _______ _____ _____    ______ ____
ROOT
ATOM      1  O   HOH     1     -13.927  12.340  33.918  0.00  0.00    +0.000 OA
ENDROOT
TORSDOF 0
REMARK  Name = ../refined-set-2016/3p9l/3p9l_pocket.pdb
REMARK  333 active torsions:
REMARK  status: ('A' for Active; 'I' for Inactive)
REMARK    1  A    between atoms: _1  and  _3
REMARK    2  A    between atoms: _3  and  _4
REMARK    3  A    between atoms: _3  and  _6
REMARK    4  A    between atoms: _6  and  _7
REMARK    5  A    between atoms: _10  and  _12
REMARK    6  A    between atoms: _12  and  _13
REMARK    7  A    between atoms: _12  and  _15
REMARK    8  A    between atoms: _15  and  _16
REMARK    9  A    between atoms: _16  and  _17
REMARK   10  A    between atoms: _17  and  _18
REMARK   11  A    between atoms: _27  and  _29
REMARK   12  A    between atoms: _29  and  _30
REMARK   13  A    between atoms: _29  and  _32
REMARK   14  A    between atoms: _32  and  _33
REMARK   15  A    between atoms: _38  and  _39
REMARK   16  A    between atoms: _41  and  _43
REMARK   17  A    between atoms: _43  and  _44
REMARK   18  A    between atoms: _43  and  _46
REMARK   19  A    between atoms: _46  and  _47
REMARK   20  A    between atoms: _53  and  _55
REMARK   21  A    between atoms: _55  and  _56
REMARK   22  A    between atoms: _55  and  _58
REMARK   23  A    between atoms: _61  and  _63
REMARK   24  A    between atoms: _63  and  _64
REMARK   25  A    between atoms: _63  and  _66
REMARK   26  A    between atoms: _66  and  _67
REMARK   27  A    between atoms: _70  and  _72
REMARK   28  A    between atoms: _72  and  _73
REMARK   29  A    between atoms: _72  and  _75
REMARK   30  A    between atoms: _75  and  _76
REMARK   31  A    between atoms: _81  and  _82
REMARK   32  A    between atoms: _84  and  _86
REMARK   33  A    between atoms: _86  and  _87
REMARK   34  A    between atoms: _86  and  _89
REMARK   35  A    between atoms: _89  and  _90
REMARK   36  A    between atoms: _90  and  _91
REMARK   37  A    between atoms: _93  and  _95
REMARK   38  A    between atoms: _95  and  _96
REMARK   39  A    between atoms: _95  and  _98
REMARK   40  A    between atoms: _98  and  _99
REMARK   41  A    between atoms: _99  and  _100
REMARK   42  A    between atoms: _103  and  _105
REMARK   43  A    between atoms: _105  and  _106
REMARK   44  A    between atoms: _105  and  _108
REMARK   45  A    between atoms: _111  and  _113
REMARK   46  A    between atoms: _113  and  _114
REMARK   47  A    between atoms: _116  and  _118
REMARK   48  A    between atoms: _118  and  _119
REMARK   49  A    between atoms: _118  and  _121
REMARK   50  A    between atoms: _124  and  _126
REMARK   51  A    between atoms: _126  and  _127
REMARK   52  A    between atoms: _126  and  _129
REMARK   53  A    between atoms: _129  and  _130
REMARK   54  A    between atoms: _136  and  _138
REMARK   55  A    between atoms: _138  and  _139
REMARK   56  A    between atoms: _138  and  _141
REMARK   57  A    between atoms: _144  and  _146
REMARK   58  A    between atoms: _146  and  _147
REMARK   59  A    between atoms: _146  and  _149
REMARK   60  A    between atoms: _149  and  _150
REMARK   61  A    between atoms: _156  and  _158
REMARK   62  A    between atoms: _158  and  _159
REMARK   63  A    between atoms: _158  and  _161
REMARK   64  A    between atoms: _161  and  _162
REMARK   65  A    between atoms: _167  and  _168
REMARK   66  A    between atoms: _170  and  _172
REMARK   67  A    between atoms: _172  and  _173
REMARK   68  A    between atoms: _172  and  _175
REMARK   69  A    between atoms: _175  and  _176
REMARK   70  A    between atoms: _176  and  _177
REMARK   71  A    between atoms: _179  and  _181
REMARK   72  A    between atoms: _181  and  _182
REMARK   73  A    between atoms: _181  and  _184
REMARK   74  A    between atoms: _184  and  _185
REMARK   75  A    between atoms: _190  and  _191
REMARK   76  A    between atoms: _193  and  _195
REMARK   77  A    between atoms: _195  and  _196
REMARK   78  A    between atoms: _195  and  _198
REMARK   79  A    between atoms: _198  and  _199
REMARK   80  A    between atoms: _199  and  _200
REMARK   81  A    between atoms: _200  and  _201
REMARK   82  A    between atoms: _210  and  _212
REMARK   83  A    between atoms: _212  and  _213
REMARK   84  A    between atoms: _212  and  _215
REMARK   85  A    between atoms: _215  and  _216
REMARK   86  A    between atoms: _216  and  _217
REMARK   87  A    between atoms: _220  and  _222
REMARK   88  A    between atoms: _222  and  _223
REMARK   89  A    between atoms: _222  and  _225
REMARK   90  A    between atoms: _225  and  _226
REMARK   91  A    between atoms: _226  and  _227
REMARK   92  A    between atoms: _232  and  _234
REMARK   93  A    between atoms: _234  and  _235
REMARK   94  A    between atoms: _234  and  _237
REMARK   95  A    between atoms: _237  and  _238
REMARK   96  A    between atoms: _238  and  _239
REMARK   97  A    between atoms: _239  and  _240
REMARK   98  A    between atoms: _240  and  _241
REMARK   99  A    between atoms: _245  and  _247
REMARK  100  A    between atoms: _247  and  _248
REMARK  101  A    between atoms: _251  and  _253
REMARK  102  A    between atoms: _253  and  _254
REMARK  103  A    between atoms: _256  and  _258
REMARK  104  A    between atoms: _258  and  _259
REMARK  105  A    between atoms: _258  and  _261
REMARK  106  A    between atoms: _261  and  _262
REMARK  107  A    between atoms: _267  and  _269
REMARK  108  A    between atoms: _269  and  _270
REMARK  109  A    between atoms: _269  and  _272
REMARK  110  A    between atoms: _272  and  _273
REMARK  111  A    between atoms: _273  and  _274
REMARK  112  A    between atoms: _277  and  _279
REMARK  113  A    between atoms: _279  and  _280
REMARK  114  A    between atoms: _279  and  _282
REMARK  115  A    between atoms: _282  and  _283
REMARK  116  A    between atoms: _283  and  _284
REMARK  117  A    between atoms: _289  and  _291
REMARK  118  A    between atoms: _291  and  _292
REMARK  119  A    between atoms: _291  and  _294
REMARK  120  A    between atoms: _294  and  _295
REMARK  121  A    between atoms: _297  and  _299
REMARK  122  A    between atoms: _299  and  _300
REMARK  123  A    between atoms: _299  and  _302
REMARK  124  A    between atoms: _302  and  _303
REMARK  125  A    between atoms: _309  and  _311
REMARK  126  A    between atoms: _311  and  _312
REMARK  127  A    between atoms: _311  and  _314
REMARK  128  A    between atoms: _314  and  _315
REMARK  129  A    between atoms: _315  and  _316
REMARK  130  A    between atoms: _316  and  _317
REMARK  131  A    between atoms: _326  and  _328
REMARK  132  A    between atoms: _328  and  _329
REMARK  133  A    between atoms: _328  and  _331
REMARK  134  A    between atoms: _334  and  _336
REMARK  135  A    between atoms: _336  and  _337
REMARK  136  A    between atoms: _336  and  _339
REMARK  137  A    between atoms: _339  and  _340
REMARK  138  A    between atoms: _343  and  _345
REMARK  139  A    between atoms: _345  and  _346
REMARK  140  A    between atoms: _345  and  _348
REMARK  141  A    between atoms: _348  and  _349
REMARK  142  A    between atoms: _352  and  _354
REMARK  143  A    between atoms: _354  and  _355
REMARK  144  A    between atoms: _354  and  _357
REMARK  145  A    between atoms: _357  and  _358
REMARK  146  A    between atoms: _358  and  _359
REMARK  147  A    between atoms: _359  and  _360
REMARK  148  A    between atoms: _369  and  _371
REMARK  149  A    between atoms: _371  and  _372
REMARK  150  A    between atoms: _371  and  _374
REMARK  151  A    between atoms: _374  and  _375
REMARK  152  A    between atoms: _378  and  _380
REMARK  153  A    between atoms: _380  and  _381
REMARK  154  A    between atoms: _380  and  _383
REMARK  155  A    between atoms: _383  and  _384
REMARK  156  A    between atoms: _387  and  _389
REMARK  157  A    between atoms: _389  and  _390
REMARK  158  A    between atoms: _389  and  _392
REMARK  159  A    between atoms: _392  and  _393
REMARK  160  A    between atoms: _398  and  _399
REMARK  161  A    between atoms: _401  and  _403
REMARK  162  A    between atoms: _403  and  _404
REMARK  163  A    between atoms: _403  and  _406
REMARK  164  A    between atoms: _406  and  _407
REMARK  165  A    between atoms: _412  and  _413
REMARK  166  A    between atoms: _415  and  _417
REMARK  167  A    between atoms: _417  and  _418
REMARK  168  A    between atoms: _417  and  _420
REMARK  169  A    between atoms: _420  and  _421
REMARK  170  A    between atoms: _424  and  _426
REMARK  171  A    between atoms: _426  and  _427
REMARK  172  A    between atoms: _426  and  _429
REMARK  173  A    between atoms: _429  and  _430
REMARK  174  A    between atoms: _430  and  _431
REMARK  175  A    between atoms: _436  and  _438
REMARK  176  A    between atoms: _438  and  _439
REMARK  177  A    between atoms: _438  and  _441
REMARK  178  A    between atoms: _444  and  _446
REMARK  179  A    between atoms: _446  and  _447
REMARK  180  A    between atoms: _446  and  _449
REMARK  181  A    between atoms: _449  and  _450
REMARK  182  A    between atoms: _453  and  _455
REMARK  183  A    between atoms: _455  and  _456
REMARK  184  A    between atoms: _455  and  _458
REMARK  185  A    between atoms: _458  and  _459
REMARK  186  A    between atoms: _461  and  _463
REMARK  187  A    between atoms: _463  and  _464
REMARK  188  A    between atoms: _466  and  _468
REMARK  189  A    between atoms: _468  and  _469
REMARK  190  A    between atoms: _468  and  _471
REMARK  191  A    between atoms: _471  and  _472
REMARK  192  A    between atoms: _472  and  _774
REMARK  193  A    between atoms: _473  and  _475
REMARK  194  A    between atoms: _475  and  _476
REMARK  195  A    between atoms: _475  and  _478
REMARK  196  A    between atoms: _478  and  _479
REMARK  197  A    between atoms: _484  and  _485
REMARK  198  A    between atoms: _487  and  _489
REMARK  199  A    between atoms: _489  and  _490
REMARK  200  A    between atoms: _489  and  _492
REMARK  201  A    between atoms: _492  and  _493
REMARK  202  A    between atoms: _493  and  _494
REMARK  203  A    between atoms: _499  and  _501
REMARK  204  A    between atoms: _501  and  _502
REMARK  205  A    between atoms: _501  and  _504
REMARK  206  A    between atoms: _504  and  _505
REMARK  207  A    between atoms: _505  and  _506
REMARK  208  A    between atoms: _511  and  _513
REMARK  209  A    between atoms: _513  and  _514
REMARK  210  A    between atoms: _513  and  _516
REMARK  211  A    between atoms: _516  and  _517
REMARK  212  A    between atoms: _522  and  _523
REMARK  213  A    between atoms: _525  and  _527
REMARK  214  A    between atoms: _527  and  _528
REMARK  215  A    between atoms: _531  and  _533
REMARK  216  A    between atoms: _533  and  _534
REMARK  217  A    between atoms: _533  and  _536
REMARK  218  A    between atoms: _536  and  _537
REMARK  219  A    between atoms: _542  and  _543
REMARK  220  A    between atoms: _545  and  _547
REMARK  221  A    between atoms: _547  and  _548
REMARK  222  A    between atoms: _547  and  _550
REMARK  223  A    between atoms: _550  and  _551
REMARK  224  A    between atoms: _556  and  _557
REMARK  225  A    between atoms: _559  and  _561
REMARK  226  A    between atoms: _561  and  _562
REMARK  227  A    between atoms: _561  and  _564
REMARK  228  A    between atoms: _564  and  _565
REMARK  229  A    between atoms: _568  and  _570
REMARK  230  A    between atoms: _570  and  _571
REMARK  231  A    between atoms: _574  and  _576
REMARK  232  A    between atoms: _576  and  _577
REMARK  233  A    between atoms: _580  and  _582
REMARK  234  A    between atoms: _582  and  _583
REMARK  235  A    between atoms: _582  and  _585
REMARK  236  A    between atoms: _585  and  _586
REMARK  237  A    between atoms: _589  and  _591
REMARK  238  A    between atoms: _591  and  _592
REMARK  239  A    between atoms: _591  and  _594
REMARK  240  A    between atoms: _594  and  _595
REMARK  241  A    between atoms: _598  and  _600
REMARK  242  A    between atoms: _600  and  _601
REMARK  243  A    between atoms: _600  and  _603
REMARK  244  A    between atoms: _603  and  _604
REMARK  245  A    between atoms: _607  and  _609
REMARK  246  A    between atoms: _609  and  _610
REMARK  247  A    between atoms: _609  and  _612
REMARK  248  A    between atoms: _612  and  _613
REMARK  249  A    between atoms: _613  and  _614
REMARK  250  A    between atoms: _614  and  _615
REMARK  251  A    between atoms: _615  and  _616
REMARK  252  A    between atoms: _620  and  _622
REMARK  253  A    between atoms: _622  and  _623
REMARK  254  A    between atoms: _622  and  _625
REMARK  255  A    between atoms: _625  and  _626
REMARK  256  A    between atoms: _631  and  _633
REMARK  257  A    between atoms: _633  and  _634
REMARK  258  A    between atoms: _633  and  _636
REMARK  259  A    between atoms: _636  and  _637
REMARK  260  A    between atoms: _637  and  _638
REMARK  261  A    between atoms: _638  and  _639
REMARK  262  A    between atoms: _639  and  _640
REMARK  263  A    between atoms: _644  and  _646
REMARK  264  A    between atoms: _646  and  _647
REMARK  265  A    between atoms: _646  and  _649
REMARK  266  A    between atoms: _649  and  _650
REMARK  267  A    between atoms: _660  and  _662
REMARK  268  A    between atoms: _662  and  _663
REMARK  269  A    between atoms: _666  and  _668
REMARK  270  A    between atoms: _668  and  _669
REMARK  271  A    between atoms: _671  and  _673
REMARK  272  A    between atoms: _673  and  _674
REMARK  273  A    between atoms: _673  and  _676
REMARK  274  A    between atoms: _676  and  _677
REMARK  275  A    between atoms: _677  and  _678
REMARK  276  A    between atoms: _681  and  _683
REMARK  277  A    between atoms: _683  and  _684
REMARK  278  A    between atoms: _687  and  _689
REMARK  279  A    between atoms: _689  and  _690
REMARK  280  A    between atoms: _689  and  _692
REMARK  281  A    between atoms: _692  and  _693
REMARK  282  A    between atoms: _693  and  _694
REMARK  283  A    between atoms: _694  and  _695
REMARK  284  A    between atoms: _704  and  _706
REMARK  285  A    between atoms: _706  and  _707
REMARK  286  A    between atoms: _706  and  _709
REMARK  287  A    between atoms: _709  and  _710
REMARK  288  A    between atoms: _713  and  _715
REMARK  289  A    between atoms: _715  and  _716
REMARK  290  A    between atoms: _715  and  _718
REMARK  291  A    between atoms: _718  and  _719
REMARK  292  A    between atoms: _719  and  _720
REMARK  293  A    between atoms: _720  and  _721
REMARK  294  A    between atoms: _730  and  _732
REMARK  295  A    between atoms: _732  and  _733
REMARK  296  A    between atoms: _736  and  _738
REMARK  297  A    between atoms: _738  and  _739
REMARK  298  A    between atoms: _738  and  _741
REMARK  299  A    between atoms: _741  and  _742
REMARK  300  A    between atoms: _747  and  _748
REMARK  301  A    between atoms: _750  and  _752
REMARK  302  A    between atoms: _752  and  _753
REMARK  303  A    between atoms: _752  and  _755
REMARK  304  A    between atoms: _755  and  _756
REMARK  305  A    between atoms: _759  and  _761
REMARK  306  A    between atoms: _761  and  _762
REMARK  307  A    between atoms: _761  and  _764
REMARK  308  A    between atoms: _764  and  _765
REMARK  309  A    between atoms: _768  and  _770
REMARK  310  A    between atoms: _770  and  _771
REMARK  311  A    between atoms: _770  and  _773
REMARK  312  A    between atoms: _773  and  _774
REMARK  313  A    between atoms: _775  and  _777
REMARK  314  A    between atoms: _777  and  _778
REMARK  315  A    between atoms: _777  and  _780
REMARK  316  A    between atoms: _783  and  _785
REMARK  317  A    between atoms: _785  and  _786
REMARK  318  A    between atoms: _785  and  _788
REMARK  319  A    between atoms: _788  and  _789
REMARK  320  A    between atoms: _789  and  _790
REMARK  321  A    between atoms: _793  and  _795
REMARK  322  A    between atoms: _795  and  _796
REMARK  323  A    between atoms: _795  and  _798
REMARK  324  A    between atoms: _798  and  _799
REMARK  325  A    between atoms: _809  and  _811
REMARK  326  A    between atoms: _811  and  _812
REMARK  327  A    between atoms: _811  and  _814
REMARK  328  A    between atoms: _814  and  _815
REMARK  329  A    between atoms: _818  and  _820
REMARK  330  A    between atoms: _820  and  _821
REMARK  331  A    between atoms: _820  and  _823
REMARK  332  A    between atoms: _823  and  _824
REMARK  333  A    between atoms: _829  and  _830
REMARK                            x       y       z     vdW  Elec       q    Type
REMARK                         _______ _______ _______ _____ _____    ______ ____
ROOT
ATOM      1  O   HOH     1     -21.958  20.212  36.354  0.00  0.00    +0.000 OA
ENDROOT
TORSDOF 0
REMARK  Name = ../refined-set-2016/3p9l/3p9l_pocket.pdb
REMARK  333 active torsions:
REMARK  status: ('A' for Active; 'I' for Inactive)
REMARK    1  A    between atoms: _1  and  _3
REMARK    2  A    between atoms: _3  and  _4
REMARK    3  A    between atoms: _3  and  _6
REMARK    4  A    between atoms: _6  and  _7
REMARK    5  A    between atoms: _10  and  _12
REMARK    6  A    between atoms: _12  and  _13
REMARK    7  A    between atoms: _12  and  _15
REMARK    8  A    between atoms: _15  and  _16
REMARK    9  A    between atoms: _16  and  _17
REMARK   10  A    between atoms: _17  and  _18
REMARK   11  A    between atoms: _27  and  _29
REMARK   12  A    between atoms: _29  and  _30
REMARK   13  A    between atoms: _29  and  _32
REMARK   14  A    between atoms: _32  and  _33
REMARK   15  A    between atoms: _38  and  _39
REMARK   16  A    between atoms: _41  and  _43
REMARK   17  A    between atoms: _43  and  _44
REMARK   18  A    between atoms: _43  and  _46
REMARK   19  A    between atoms: _46  and  _47
REMARK   20  A    between atoms: _53  and  _55
REMARK   21  A    between atoms: _55  and  _56
REMARK   22  A    between atoms: _55  and  _58
REMARK   23  A    between atoms: _61  and  _63
REMARK   24  A    between atoms: _63  and  _64
REMARK   25  A    between atoms: _63  and  _66
REMARK   26  A    between atoms: _66  and  _67
REMARK   27  A    between atoms: _70  and  _72
REMARK   28  A    between atoms: _72  and  _73
REMARK   29  A    between atoms: _72  and  _75
REMARK   30  A    between atoms: _75  and  _76
REMARK   31  A    between atoms: _81  and  _82
REMARK   32  A    between atoms: _84  and  _86
REMARK   33  A    between atoms: _86  and  _87
REMARK   34  A    between atoms: _86  and  _89
REMARK   35  A    between atoms: _89  and  _90
REMARK   36  A    between atoms: _90  and  _91
REMARK   37  A    between atoms: _93  and  _95
REMARK   38  A    between atoms: _95  and  _96
REMARK   39  A    between atoms: _95  and  _98
REMARK   40  A    between atoms: _98  and  _99
REMARK   41  A    between atoms: _99  and  _100
REMARK   42  A    between atoms: _103  and  _105
REMARK   43  A    between atoms: _105  and  _106
REMARK   44  A    between atoms: _105  and  _108
REMARK   45  A    between atoms: _111  and  _113
REMARK   46  A    between atoms: _113  and  _114
REMARK   47  A    between atoms: _116  and  _118
REMARK   48  A    between atoms: _118  and  _119
REMARK   49  A    between atoms: _118  and  _121
REMARK   50  A    between atoms: _124  and  _126
REMARK   51  A    between atoms: _126  and  _127
REMARK   52  A    between atoms: _126  and  _129
REMARK   53  A    between atoms: _129  and  _130
REMARK   54  A    between atoms: _136  and  _138
REMARK   55  A    between atoms: _138  and  _139
REMARK   56  A    between atoms: _138  and  _141
REMARK   57  A    between atoms: _144  and  _146
REMARK   58  A    between atoms: _146  and  _147
REMARK   59  A    between atoms: _146  and  _149
REMARK   60  A    between atoms: _149  and  _150
REMARK   61  A    between atoms: _156  and  _158
REMARK   62  A    between atoms: _158  and  _159
REMARK   63  A    between atoms: _158  and  _161
REMARK   64  A    between atoms: _161  and  _162
REMARK   65  A    between atoms: _167  and  _168
REMARK   66  A    between atoms: _170  and  _172
REMARK   67  A    between atoms: _172  and  _173
REMARK   68  A    between atoms: _172  and  _175
REMARK   69  A    between atoms: _175  and  _176
REMARK   70  A    between atoms: _176  and  _177
REMARK   71  A    between atoms: _179  and  _181
REMARK   72  A    between atoms: _181  and  _182
REMARK   73  A    between atoms: _181  and  _184
REMARK   74  A    between atoms: _184  and  _185
REMARK   75  A    between atoms: _190  and  _191
REMARK   76  A    between atoms: _193  and  _195
REMARK   77  A    between atoms: _195  and  _196
REMARK   78  A    between atoms: _195  and  _198
REMARK   79  A    between atoms: _198  and  _199
REMARK   80  A    between atoms: _199  and  _200
REMARK   81  A    between atoms: _200  and  _201
REMARK   82  A    between atoms: _210  and  _212
REMARK   83  A    between atoms: _212  and  _213
REMARK   84  A    between atoms: _212  and  _215
REMARK   85  A    between atoms: _215  and  _216
REMARK   86  A    between atoms: _216  and  _217
REMARK   87  A    between atoms: _220  and  _222
REMARK   88  A    between atoms: _222  and  _223
REMARK   89  A    between atoms: _222  and  _225
REMARK   90  A    between atoms: _225  and  _226
REMARK   91  A    between atoms: _226  and  _227
REMARK   92  A    between atoms: _232  and  _234
REMARK   93  A    between atoms: _234  and  _235
REMARK   94  A    between atoms: _234  and  _237
REMARK   95  A    between atoms: _237  and  _238
REMARK   96  A    between atoms: _238  and  _239
REMARK   97  A    between atoms: _239  and  _240
REMARK   98  A    between atoms: _240  and  _241
REMARK   99  A    between atoms: _245  and  _247
REMARK  100  A    between atoms: _247  and  _248
REMARK  101  A    between atoms: _251  and  _253
REMARK  102  A    between atoms: _253  and  _254
REMARK  103  A    between atoms: _256  and  _258
REMARK  104  A    between atoms: _258  and  _259
REMARK  105  A    between atoms: _258  and  _261
REMARK  106  A    between atoms: _261  and  _262
REMARK  107  A    between atoms: _267  and  _269
REMARK  108  A    between atoms: _269  and  _270
REMARK  109  A    between atoms: _269  and  _272
REMARK  110  A    between atoms: _272  and  _273
REMARK  111  A    between atoms: _273  and  _274
REMARK  112  A    between atoms: _277  and  _279
REMARK  113  A    between atoms: _279  and  _280
REMARK  114  A    between atoms: _279  and  _282
REMARK  115  A    between atoms: _282  and  _283
REMARK  116  A    between atoms: _283  and  _284
REMARK  117  A    between atoms: _289  and  _291
REMARK  118  A    between atoms: _291  and  _292
REMARK  119  A    between atoms: _291  and  _294
REMARK  120  A    between atoms: _294  and  _295
REMARK  121  A    between atoms: _297  and  _299
REMARK  122  A    between atoms: _299  and  _300
REMARK  123  A    between atoms: _299  and  _302
REMARK  124  A    between atoms: _302  and  _303
REMARK  125  A    between atoms: _309  and  _311
REMARK  126  A    between atoms: _311  and  _312
REMARK  127  A    between atoms: _311  and  _314
REMARK  128  A    between atoms: _314  and  _315
REMARK  129  A    between atoms: _315  and  _316
REMARK  130  A    between atoms: _316  and  _317
REMARK  131  A    between atoms: _326  and  _328
REMARK  132  A    between atoms: _328  and  _329
REMARK  133  A    between atoms: _328  and  _331
REMARK  134  A    between atoms: _334  and  _336
REMARK  135  A    between atoms: _336  and  _337
REMARK  136  A    between atoms: _336  and  _339
REMARK  137  A    between atoms: _339  and  _340
REMARK  138  A    between atoms: _343  and  _345
REMARK  139  A    between atoms: _345  and  _346
REMARK  140  A    between atoms: _345  and  _348
REMARK  141  A    between atoms: _348  and  _349
REMARK  142  A    between atoms: _352  and  _354
REMARK  143  A    between atoms: _354  and  _355
REMARK  144  A    between atoms: _354  and  _357
REMARK  145  A    between atoms: _357  and  _358
REMARK  146  A    between atoms: _358  and  _359
REMARK  147  A    between atoms: _359  and  _360
REMARK  148  A    between atoms: _369  and  _371
REMARK  149  A    between atoms: _371  and  _372
REMARK  150  A    between atoms: _371  and  _374
REMARK  151  A    between atoms: _374  and  _375
REMARK  152  A    between atoms: _378  and  _380
REMARK  153  A    between atoms: _380  and  _381
REMARK  154  A    between atoms: _380  and  _383
REMARK  155  A    between atoms: _383  and  _384
REMARK  156  A    between atoms: _387  and  _389
REMARK  157  A    between atoms: _389  and  _390
REMARK  158  A    between atoms: _389  and  _392
REMARK  159  A    between atoms: _392  and  _393
REMARK  160  A    between atoms: _398  and  _399
REMARK  161  A    between atoms: _401  and  _403
REMARK  162  A    between atoms: _403  and  _404
REMARK  163  A    between atoms: _403  and  _406
REMARK  164  A    between atoms: _406  and  _407
REMARK  165  A    between atoms: _412  and  _413
REMARK  166  A    between atoms: _415  and  _417
REMARK  167  A    between atoms: _417  and  _418
REMARK  168  A    between atoms: _417  and  _420
REMARK  169  A    between atoms: _420  and  _421
REMARK  170  A    between atoms: _424  and  _426
REMARK  171  A    between atoms: _426  and  _427
REMARK  172  A    between atoms: _426  and  _429
REMARK  173  A    between atoms: _429  and  _430
REMARK  174  A    between atoms: _430  and  _431
REMARK  175  A    between atoms: _436  and  _438
REMARK  176  A    between atoms: _438  and  _439
REMARK  177  A    between atoms: _438  and  _441
REMARK  178  A    between atoms: _444  and  _446
REMARK  179  A    between atoms: _446  and  _447
REMARK  180  A    between atoms: _446  and  _449
REMARK  181  A    between atoms: _449  and  _450
REMARK  182  A    between atoms: _453  and  _455
REMARK  183  A    between atoms: _455  and  _456
REMARK  184  A    between atoms: _455  and  _458
REMARK  185  A    between atoms: _458  and  _459
REMARK  186  A    between atoms: _461  and  _463
REMARK  187  A    between atoms: _463  and  _464
REMARK  188  A    between atoms: _466  and  _468
REMARK  189  A    between atoms: _468  and  _469
REMARK  190  A    between atoms: _468  and  _471
REMARK  191  A    between atoms: _471  and  _472
REMARK  192  A    between atoms: _472  and  _774
REMARK  193  A    between atoms: _473  and  _475
REMARK  194  A    between atoms: _475  and  _476
REMARK  195  A    between atoms: _475  and  _478
REMARK  196  A    between atoms: _478  and  _479
REMARK  197  A    between atoms: _484  and  _485
REMARK  198  A    between atoms: _487  and  _489
REMARK  199  A    between atoms: _489  and  _490
REMARK  200  A    between atoms: _489  and  _492
REMARK  201  A    between atoms: _492  and  _493
REMARK  202  A    between atoms: _493  and  _494
REMARK  203  A    between atoms: _499  and  _501
REMARK  204  A    between atoms: _501  and  _502
REMARK  205  A    between atoms: _501  and  _504
REMARK  206  A    between atoms: _504  and  _505
REMARK  207  A    between atoms: _505  and  _506
REMARK  208  A    between atoms: _511  and  _513
REMARK  209  A    between atoms: _513  and  _514
REMARK  210  A    between atoms: _513  and  _516
REMARK  211  A    between atoms: _516  and  _517
REMARK  212  A    between atoms: _522  and  _523
REMARK  213  A    between atoms: _525  and  _527
REMARK  214  A    between atoms: _527  and  _528
REMARK  215  A    between atoms: _531  and  _533
REMARK  216  A    between atoms: _533  and  _534
REMARK  217  A    between atoms: _533  and  _536
REMARK  218  A    between atoms: _536  and  _537
REMARK  219  A    between atoms: _542  and  _543
REMARK  220  A    between atoms: _545  and  _547
REMARK  221  A    between atoms: _547  and  _548
REMARK  222  A    between atoms: _547  and  _550
REMARK  223  A    between atoms: _550  and  _551
REMARK  224  A    between atoms: _556  and  _557
REMARK  225  A    between atoms: _559  and  _561
REMARK  226  A    between atoms: _561  and  _562
REMARK  227  A    between atoms: _561  and  _564
REMARK  228  A    between atoms: _564  and  _565
REMARK  229  A    between atoms: _568  and  _570
REMARK  230  A    between atoms: _570  and  _571
REMARK  231  A    between atoms: _574  and  _576
REMARK  232  A    between atoms: _576  and  _577
REMARK  233  A    between atoms: _580  and  _582
REMARK  234  A    between atoms: _582  and  _583
REMARK  235  A    between atoms: _582  and  _585
REMARK  236  A    between atoms: _585  and  _586
REMARK  237  A    between atoms: _589  and  _591
REMARK  238  A    between atoms: _591  and  _592
REMARK  239  A    between atoms: _591  and  _594
REMARK  240  A    between atoms: _594  and  _595
REMARK  241  A    between atoms: _598  and  _600
REMARK  242  A    between atoms: _600  and  _601
REMARK  243  A    between atoms: _600  and  _603
REMARK  244  A    between atoms: _603  and  _604
REMARK  245  A    between atoms: _607  and  _609
REMARK  246  A    between atoms: _609  and  _610
REMARK  247  A    between atoms: _609  and  _612
REMARK  248  A    between atoms: _612  and  _613
REMARK  249  A    between atoms: _613  and  _614
REMARK  250  A    between atoms: _614  and  _615
REMARK  251  A    between atoms: _615  and  _616
REMARK  252  A    between atoms: _620  and  _622
REMARK  253  A    between atoms: _622  and  _623
REMARK  254  A    between atoms: _622  and  _625
REMARK  255  A    between atoms: _625  and  _626
REMARK  256  A    between atoms: _631  and  _633
REMARK  257  A    between atoms: _633  and  _634
REMARK  258  A    between atoms: _633  and  _636
REMARK  259  A    between atoms: _636  and  _637
REMARK  260  A    between atoms: _637  and  _638
REMARK  261  A    between atoms: _638  and  _639
REMARK  262  A    between atoms: _639  and  _640
REMARK  263  A    between atoms: _644  and  _646
REMARK  264  A    between atoms: _646  and  _647
REMARK  265  A    between atoms: _646  and  _649
REMARK  266  A    between atoms: _649  and  _650
REMARK  267  A    between atoms: _660  and  _662
REMARK  268  A    between atoms: _662  and  _663
REMARK  269  A    between atoms: _666  and  _668
REMARK  270  A    between atoms: _668  and  _669
REMARK  271  A    between atoms: _671  and  _673
REMARK  272  A    between atoms: _673  and  _674
REMARK  273  A    between atoms: _673  and  _676
REMARK  274  A    between atoms: _676  and  _677
REMARK  275  A    between atoms: _677  and  _678
REMARK  276  A    between atoms: _681  and  _683
REMARK  277  A    between atoms: _683  and  _684
REMARK  278  A    between atoms: _687  and  _689
REMARK  279  A    between atoms: _689  and  _690
REMARK  280  A    between atoms: _689  and  _692
REMARK  281  A    between atoms: _692  and  _693
REMARK  282  A    between atoms: _693  and  _694
REMARK  283  A    between atoms: _694  and  _695
REMARK  284  A    between atoms: _704  and  _706
REMARK  285  A    between atoms: _706  and  _707
REMARK  286  A    between atoms: _706  and  _709
REMARK  287  A    between atoms: _709  and  _710
REMARK  288  A    between atoms: _713  and  _715
REMARK  289  A    between atoms: _715  and  _716
REMARK  290  A    between atoms: _715  and  _718
REMARK  291  A    between atoms: _718  and  _719
REMARK  292  A    between atoms: _719  and  _720
REMARK  293  A    between atoms: _720  and  _721
REMARK  294  A    between atoms: _730  and  _732
REMARK  295  A    between atoms: _732  and  _733
REMARK  296  A    between atoms: _736  and  _738
REMARK  297  A    between atoms: _738  and  _739
REMARK  298  A    between atoms: _738  and  _741
REMARK  299  A    between atoms: _741  and  _742
REMARK  300  A    between atoms: _747  and  _748
REMARK  301  A    between atoms: _750  and  _752
REMARK  302  A    between atoms: _752  and  _753
REMARK  303  A    between atoms: _752  and  _755
REMARK  304  A    between atoms: _755  and  _756
REMARK  305  A    between atoms: _759  and  _761
REMARK  306  A    between atoms: _761  and  _762
REMARK  307  A    between atoms: _761  and  _764
REMARK  308  A    between atoms: _764  and  _765
REMARK  309  A    between atoms: _768  and  _770
REMARK  310  A    between atoms: _770  and  _771
REMARK  311  A    between atoms: _770  and  _773
REMARK  312  A    between atoms: _773  and  _774
REMARK  313  A    between atoms: _775  and  _777
REMARK  314  A    between atoms: _777  and  _778
REMARK  315  A    between atoms: _777  and  _780
REMARK  316  A    between atoms: _783  and  _785
REMARK  317  A    between atoms: _785  and  _786
REMARK  318  A    between atoms: _785  and  _788
REMARK  319  A    between atoms: _788  and  _789
REMARK  320  A    between atoms: _789  and  _790
REMARK  321  A    between atoms: _793  and  _795
REMARK  322  A    between atoms: _795  and  _796
REMARK  323  A    between atoms: _795  and  _798
REMARK  324  A    between atoms: _798  and  _799
REMARK  325  A    between atoms: _809  and  _811
REMARK  326  A    between atoms: _811  and  _812
REMARK  327  A    between atoms: _811  and  _814
REMARK  328  A    between atoms: _814  and  _815
REMARK  329  A    between atoms: _818  and  _820
REMARK  330  A    between atoms: _820  and  _821
REMARK  331  A    between atoms: _820  and  _823
REMARK  332  A    between atoms: _823  and  _824
REMARK  333  A    between atoms: _829  and  _830
REMARK                            x       y       z     vdW  Elec       q    Type
REMARK                         _______ _______ _______ _____ _____    ______ ____
ROOT
ATOM      1  O   HOH     1     -12.101  -4.731  30.741  0.00  0.00    +0.000 OA
ENDROOT
TORSDOF 0
REMARK  Name = ../refined-set-2016/3p9l/3p9l_pocket.pdb
REMARK  333 active torsions:
REMARK  status: ('A' for Active; 'I' for Inactive)
REMARK    1  A    between atoms: _1  and  _3
REMARK    2  A    between atoms: _3  and  _4
REMARK    3  A    between atoms: _3  and  _6
REMARK    4  A    between atoms: _6  and  _7
REMARK    5  A    between atoms: _10  and  _12
REMARK    6  A    between atoms: _12  and  _13
REMARK    7  A    between atoms: _12  and  _15
REMARK    8  A    between atoms: _15  and  _16
REMARK    9  A    between atoms: _16  and  _17
REMARK   10  A    between atoms: _17  and  _18
REMARK   11  A    between atoms: _27  and  _29
REMARK   12  A    between atoms: _29  and  _30
REMARK   13  A    between atoms: _29  and  _32
REMARK   14  A    between atoms: _32  and  _33
REMARK   15  A    between atoms: _38  and  _39
REMARK   16  A    between atoms: _41  and  _43
REMARK   17  A    between atoms: _43  and  _44
REMARK   18  A    between atoms: _43  and  _46
REMARK   19  A    between atoms: _46  and  _47
REMARK   20  A    between atoms: _53  and  _55
REMARK   21  A    between atoms: _55  and  _56
REMARK   22  A    between atoms: _55  and  _58
REMARK   23  A    between atoms: _61  and  _63
REMARK   24  A    between atoms: _63  and  _64
REMARK   25  A    between atoms: _63  and  _66
REMARK   26  A    between atoms: _66  and  _67
REMARK   27  A    between atoms: _70  and  _72
REMARK   28  A    between atoms: _72  and  _73
REMARK   29  A    between atoms: _72  and  _75
REMARK   30  A    between atoms: _75  and  _76
REMARK   31  A    between atoms: _81  and  _82
REMARK   32  A    between atoms: _84  and  _86
REMARK   33  A    between atoms: _86  and  _87
REMARK   34  A    between atoms: _86  and  _89
REMARK   35  A    between atoms: _89  and  _90
REMARK   36  A    between atoms: _90  and  _91
REMARK   37  A    between atoms: _93  and  _95
REMARK   38  A    between atoms: _95  and  _96
REMARK   39  A    between atoms: _95  and  _98
REMARK   40  A    between atoms: _98  and  _99
REMARK   41  A    between atoms: _99  and  _100
REMARK   42  A    between atoms: _103  and  _105
REMARK   43  A    between atoms: _105  and  _106
REMARK   44  A    between atoms: _105  and  _108
REMARK   45  A    between atoms: _111  and  _113
REMARK   46  A    between atoms: _113  and  _114
REMARK   47  A    between atoms: _116  and  _118
REMARK   48  A    between atoms: _118  and  _119
REMARK   49  A    between atoms: _118  and  _121
REMARK   50  A    between atoms: _124  and  _126
REMARK   51  A    between atoms: _126  and  _127
REMARK   52  A    between atoms: _126  and  _129
REMARK   53  A    between atoms: _129  and  _130
REMARK   54  A    between atoms: _136  and  _138
REMARK   55  A    between atoms: _138  and  _139
REMARK   56  A    between atoms: _138  and  _141
REMARK   57  A    between atoms: _144  and  _146
REMARK   58  A    between atoms: _146  and  _147
REMARK   59  A    between atoms: _146  and  _149
REMARK   60  A    between atoms: _149  and  _150
REMARK   61  A    between atoms: _156  and  _158
REMARK   62  A    between atoms: _158  and  _159
REMARK   63  A    between atoms: _158  and  _161
REMARK   64  A    between atoms: _161  and  _162
REMARK   65  A    between atoms: _167  and  _168
REMARK   66  A    between atoms: _170  and  _172
REMARK   67  A    between atoms: _172  and  _173
REMARK   68  A    between atoms: _172  and  _175
REMARK   69  A    between atoms: _175  and  _176
REMARK   70  A    between atoms: _176  and  _177
REMARK   71  A    between atoms: _179  and  _181
REMARK   72  A    between atoms: _181  and  _182
REMARK   73  A    between atoms: _181  and  _184
REMARK   74  A    between atoms: _184  and  _185
REMARK   75  A    between atoms: _190  and  _191
REMARK   76  A    between atoms: _193  and  _195
REMARK   77  A    between atoms: _195  and  _196
REMARK   78  A    between atoms: _195  and  _198
REMARK   79  A    between atoms: _198  and  _199
REMARK   80  A    between atoms: _199  and  _200
REMARK   81  A    between atoms: _200  and  _201
REMARK   82  A    between atoms: _210  and  _212
REMARK   83  A    between atoms: _212  and  _213
REMARK   84  A    between atoms: _212  and  _215
REMARK   85  A    between atoms: _215  and  _216
REMARK   86  A    between atoms: _216  and  _217
REMARK   87  A    between atoms: _220  and  _222
REMARK   88  A    between atoms: _222  and  _223
REMARK   89  A    between atoms: _222  and  _225
REMARK   90  A    between atoms: _225  and  _226
REMARK   91  A    between atoms: _226  and  _227
REMARK   92  A    between atoms: _232  and  _234
REMARK   93  A    between atoms: _234  and  _235
REMARK   94  A    between atoms: _234  and  _237
REMARK   95  A    between atoms: _237  and  _238
REMARK   96  A    between atoms: _238  and  _239
REMARK   97  A    between atoms: _239  and  _240
REMARK   98  A    between atoms: _240  and  _241
REMARK   99  A    between atoms: _245  and  _247
REMARK  100  A    between atoms: _247  and  _248
REMARK  101  A    between atoms: _251  and  _253
REMARK  102  A    between atoms: _253  and  _254
REMARK  103  A    between atoms: _256  and  _258
REMARK  104  A    between atoms: _258  and  _259
REMARK  105  A    between atoms: _258  and  _261
REMARK  106  A    between atoms: _261  and  _262
REMARK  107  A    between atoms: _267  and  _269
REMARK  108  A    between atoms: _269  and  _270
REMARK  109  A    between atoms: _269  and  _272
REMARK  110  A    between atoms: _272  and  _273
REMARK  111  A    between atoms: _273  and  _274
REMARK  112  A    between atoms: _277  and  _279
REMARK  113  A    between atoms: _279  and  _280
REMARK  114  A    between atoms: _279  and  _282
REMARK  115  A    between atoms: _282  and  _283
REMARK  116  A    between atoms: _283  and  _284
REMARK  117  A    between atoms: _289  and  _291
REMARK  118  A    between atoms: _291  and  _292
REMARK  119  A    between atoms: _291  and  _294
REMARK  120  A    between atoms: _294  and  _295
REMARK  121  A    between atoms: _297  and  _299
REMARK  122  A    between atoms: _299  and  _300
REMARK  123  A    between atoms: _299  and  _302
REMARK  124  A    between atoms: _302  and  _303
REMARK  125  A    between atoms: _309  and  _311
REMARK  126  A    between atoms: _311  and  _312
REMARK  127  A    between atoms: _311  and  _314
REMARK  128  A    between atoms: _314  and  _315
REMARK  129  A    between atoms: _315  and  _316
REMARK  130  A    between atoms: _316  and  _317
REMARK  131  A    between atoms: _326  and  _328
REMARK  132  A    between atoms: _328  and  _329
REMARK  133  A    between atoms: _328  and  _331
REMARK  134  A    between atoms: _334  and  _336
REMARK  135  A    between atoms: _336  and  _337
REMARK  136  A    between atoms: _336  and  _339
REMARK  137  A    between atoms: _339  and  _340
REMARK  138  A    between atoms: _343  and  _345
REMARK  139  A    between atoms: _345  and  _346
REMARK  140  A    between atoms: _345  and  _348
REMARK  141  A    between atoms: _348  and  _349
REMARK  142  A    between atoms: _352  and  _354
REMARK  143  A    between atoms: _354  and  _355
REMARK  144  A    between atoms: _354  and  _357
REMARK  145  A    between atoms: _357  and  _358
REMARK  146  A    between atoms: _358  and  _359
REMARK  147  A    between atoms: _359  and  _360
REMARK  148  A    between atoms: _369  and  _371
REMARK  149  A    between atoms: _371  and  _372
REMARK  150  A    between atoms: _371  and  _374
REMARK  151  A    between atoms: _374  and  _375
REMARK  152  A    between atoms: _378  and  _380
REMARK  153  A    between atoms: _380  and  _381
REMARK  154  A    between atoms: _380  and  _383
REMARK  155  A    between atoms: _383  and  _384
REMARK  156  A    between atoms: _387  and  _389
REMARK  157  A    between atoms: _389  and  _390
REMARK  158  A    between atoms: _389  and  _392
REMARK  159  A    between atoms: _392  and  _393
REMARK  160  A    between atoms: _398  and  _399
REMARK  161  A    between atoms: _401  and  _403
REMARK  162  A    between atoms: _403  and  _404
REMARK  163  A    between atoms: _403  and  _406
REMARK  164  A    between atoms: _406  and  _407
REMARK  165  A    between atoms: _412  and  _413
REMARK  166  A    between atoms: _415  and  _417
REMARK  167  A    between atoms: _417  and  _418
REMARK  168  A    between atoms: _417  and  _420
REMARK  169  A    between atoms: _420  and  _421
REMARK  170  A    between atoms: _424  and  _426
REMARK  171  A    between atoms: _426  and  _427
REMARK  172  A    between atoms: _426  and  _429
REMARK  173  A    between atoms: _429  and  _430
REMARK  174  A    between atoms: _430  and  _431
REMARK  175  A    between atoms: _436  and  _438
REMARK  176  A    between atoms: _438  and  _439
REMARK  177  A    between atoms: _438  and  _441
REMARK  178  A    between atoms: _444  and  _446
REMARK  179  A    between atoms: _446  and  _447
REMARK  180  A    between atoms: _446  and  _449
REMARK  181  A    between atoms: _449  and  _450
REMARK  182  A    between atoms: _453  and  _455
REMARK  183  A    between atoms: _455  and  _456
REMARK  184  A    between atoms: _455  and  _458
REMARK  185  A    between atoms: _458  and  _459
REMARK  186  A    between atoms: _461  and  _463
REMARK  187  A    between atoms: _463  and  _464
REMARK  188  A    between atoms: _466  and  _468
REMARK  189  A    between atoms: _468  and  _469
REMARK  190  A    between atoms: _468  and  _471
REMARK  191  A    between atoms: _471  and  _472
REMARK  192  A    between atoms: _472  and  _774
REMARK  193  A    between atoms: _473  and  _475
REMARK  194  A    between atoms: _475  and  _476
REMARK  195  A    between atoms: _475  and  _478
REMARK  196  A    between atoms: _478  and  _479
REMARK  197  A    between atoms: _484  and  _485
REMARK  198  A    between atoms: _487  and  _489
REMARK  199  A    between atoms: _489  and  _490
REMARK  200  A    between atoms: _489  and  _492
REMARK  201  A    between atoms: _492  and  _493
REMARK  202  A    between atoms: _493  and  _494
REMARK  203  A    between atoms: _499  and  _501
REMARK  204  A    between atoms: _501  and  _502
REMARK  205  A    between atoms: _501  and  _504
REMARK  206  A    between atoms: _504  and  _505
REMARK  207  A    between atoms: _505  and  _506
REMARK  208  A    between atoms: _511  and  _513
REMARK  209  A    between atoms: _513  and  _514
REMARK  210  A    between atoms: _513  and  _516
REMARK  211  A    between atoms: _516  and  _517
REMARK  212  A    between atoms: _522  and  _523
REMARK  213  A    between atoms: _525  and  _527
REMARK  214  A    between atoms: _527  and  _528
REMARK  215  A    between atoms: _531  and  _533
REMARK  216  A    between atoms: _533  and  _534
REMARK  217  A    between atoms: _533  and  _536
REMARK  218  A    between atoms: _536  and  _537
REMARK  219  A    between atoms: _542  and  _543
REMARK  220  A    between atoms: _545  and  _547
REMARK  221  A    between atoms: _547  and  _548
REMARK  222  A    between atoms: _547  and  _550
REMARK  223  A    between atoms: _550  and  _551
REMARK  224  A    between atoms: _556  and  _557
REMARK  225  A    between atoms: _559  and  _561
REMARK  226  A    between atoms: _561  and  _562
REMARK  227  A    between atoms: _561  and  _564
REMARK  228  A    between atoms: _564  and  _565
REMARK  229  A    between atoms: _568  and  _570
REMARK  230  A    between atoms: _570  and  _571
REMARK  231  A    between atoms: _574  and  _576
REMARK  232  A    between atoms: _576  and  _577
REMARK  233  A    between atoms: _580  and  _582
REMARK  234  A    between atoms: _582  and  _583
REMARK  235  A    between atoms: _582  and  _585
REMARK  236  A    between atoms: _585  and  _586
REMARK  237  A    between atoms: _589  and  _591
REMARK  238  A    between atoms: _591  and  _592
REMARK  239  A    between atoms: _591  and  _594
REMARK  240  A    between atoms: _594  and  _595
REMARK  241  A    between atoms: _598  and  _600
REMARK  242  A    between atoms: _600  and  _601
REMARK  243  A    between atoms: _600  and  _603
REMARK  244  A    between atoms: _603  and  _604
REMARK  245  A    between atoms: _607  and  _609
REMARK  246  A    between atoms: _609  and  _610
REMARK  247  A    between atoms: _609  and  _612
REMARK  248  A    between atoms: _612  and  _613
REMARK  249  A    between atoms: _613  and  _614
REMARK  250  A    between atoms: _614  and  _615
REMARK  251  A    between atoms: _615  and  _616
REMARK  252  A    between atoms: _620  and  _622
REMARK  253  A    between atoms: _622  and  _623
REMARK  254  A    between atoms: _622  and  _625
REMARK  255  A    between atoms: _625  and  _626
REMARK  256  A    between atoms: _631  and  _633
REMARK  257  A    between atoms: _633  and  _634
REMARK  258  A    between atoms: _633  and  _636
REMARK  259  A    between atoms: _636  and  _637
REMARK  260  A    between atoms: _637  and  _638
REMARK  261  A    between atoms: _638  and  _639
REMARK  262  A    between atoms: _639  and  _640
REMARK  263  A    between atoms: _644  and  _646
REMARK  264  A    between atoms: _646  and  _647
REMARK  265  A    between atoms: _646  and  _649
REMARK  266  A    between atoms: _649  and  _650
REMARK  267  A    between atoms: _660  and  _662
REMARK  268  A    between atoms: _662  and  _663
REMARK  269  A    between atoms: _666  and  _668
REMARK  270  A    between atoms: _668  and  _669
REMARK  271  A    between atoms: _671  and  _673
REMARK  272  A    between atoms: _673  and  _674
REMARK  273  A    between atoms: _673  and  _676
REMARK  274  A    between atoms: _676  and  _677
REMARK  275  A    between atoms: _677  and  _678
REMARK  276  A    between atoms: _681  and  _683
REMARK  277  A    between atoms: _683  and  _684
REMARK  278  A    between atoms: _687  and  _689
REMARK  279  A    between atoms: _689  and  _690
REMARK  280  A    between atoms: _689  and  _692
REMARK  281  A    between atoms: _692  and  _693
REMARK  282  A    between atoms: _693  and  _694
REMARK  283  A    between atoms: _694  and  _695
REMARK  284  A    between atoms: _704  and  _706
REMARK  285  A    between atoms: _706  and  _707
REMARK  286  A    between atoms: _706  and  _709
REMARK  287  A    between atoms: _709  and  _710
REMARK  288  A    between atoms: _713  and  _715
REMARK  289  A    between atoms: _715  and  _716
REMARK  290  A    between atoms: _715  and  _718
REMARK  291  A    between atoms: _718  and  _719
REMARK  292  A    between atoms: _719  and  _720
REMARK  293  A    between atoms: _720  and  _721
REMARK  294  A    between atoms: _730  and  _732
REMARK  295  A    between atoms: _732  and  _733
REMARK  296  A    between atoms: _736  and  _738
REMARK  297  A    between atoms: _738  and  _739
REMARK  298  A    between atoms: _738  and  _741
REMARK  299  A    between atoms: _741  and  _742
REMARK  300  A    between atoms: _747  and  _748
REMARK  301  A    between atoms: _750  and  _752
REMARK  302  A    between atoms: _752  and  _753
REMARK  303  A    between atoms: _752  and  _755
REMARK  304  A    between atoms: _755  and  _756
REMARK  305  A    between atoms: _759  and  _761
REMARK  306  A    between atoms: _761  and  _762
REMARK  307  A    between atoms: _761  and  _764
REMARK  308  A    between atoms: _764  and  _765
REMARK  309  A    between atoms: _768  and  _770
REMARK  310  A    between atoms: _770  and  _771
REMARK  311  A    between atoms: _770  and  _773
REMARK  312  A    between atoms: _773  and  _774
REMARK  313  A    between atoms: _775  and  _777
REMARK  314  A    between atoms: _777  and  _778
REMARK  315  A    between atoms: _777  and  _780
REMARK  316  A    between atoms: _783  and  _785
REMARK  317  A    between atoms: _785  and  _786
REMARK  318  A    between atoms: _785  and  _788
REMARK  319  A    between atoms: _788  and  _789
REMARK  320  A    between atoms: _789  and  _790
REMARK  321  A    between atoms: _793  and  _795
REMARK  322  A    between atoms: _795  and  _796
REMARK  323  A    between atoms: _795  and  _798
REMARK  324  A    between atoms: _798  and  _799
REMARK  325  A    between atoms: _809  and  _811
REMARK  326  A    between atoms: _811  and  _812
REMARK  327  A    between atoms: _811  and  _814
REMARK  328  A    between atoms: _814  and  _815
REMARK  329  A    between atoms: _818  and  _820
REMARK  330  A    between atoms: _820  and  _821
REMARK  331  A    between atoms: _820  and  _823
REMARK  332  A    between atoms: _823  and  _824
REMARK  333  A    between atoms: _829  and  _830
REMARK                            x       y       z     vdW  Elec       q    Type
REMARK                         _______ _______ _______ _____ _____    ______ ____
ROOT
ATOM      1  O   HOH     1     -25.702  16.047  20.677  0.00  0.00    +0.000 OA
ENDROOT
TORSDOF 0
REMARK  Name = ../refined-set-2016/3p9l/3p9l_pocket.pdb
REMARK  333 active torsions:
REMARK  status: ('A' for Active; 'I' for Inactive)
REMARK    1  A    between atoms: _1  and  _3
REMARK    2  A    between atoms: _3  and  _4
REMARK    3  A    between atoms: _3  and  _6
REMARK    4  A    between atoms: _6  and  _7
REMARK    5  A    between atoms: _10  and  _12
REMARK    6  A    between atoms: _12  and  _13
REMARK    7  A    between atoms: _12  and  _15
REMARK    8  A    between atoms: _15  and  _16
REMARK    9  A    between atoms: _16  and  _17
REMARK   10  A    between atoms: _17  and  _18
REMARK   11  A    between atoms: _27  and  _29
REMARK   12  A    between atoms: _29  and  _30
REMARK   13  A    between atoms: _29  and  _32
REMARK   14  A    between atoms: _32  and  _33
REMARK   15  A    between atoms: _38  and  _39
REMARK   16  A    between atoms: _41  and  _43
REMARK   17  A    between atoms: _43  and  _44
REMARK   18  A    between atoms: _43  and  _46
REMARK   19  A    between atoms: _46  and  _47
REMARK   20  A    between atoms: _53  and  _55
REMARK   21  A    between atoms: _55  and  _56
REMARK   22  A    between atoms: _55  and  _58
REMARK   23  A    between atoms: _61  and  _63
REMARK   24  A    between atoms: _63  and  _64
REMARK   25  A    between atoms: _63  and  _66
REMARK   26  A    between atoms: _66  and  _67
REMARK   27  A    between atoms: _70  and  _72
REMARK   28  A    between atoms: _72  and  _73
REMARK   29  A    between atoms: _72  and  _75
REMARK   30  A    between atoms: _75  and  _76
REMARK   31  A    between atoms: _81  and  _82
REMARK   32  A    between atoms: _84  and  _86
REMARK   33  A    between atoms: _86  and  _87
REMARK   34  A    between atoms: _86  and  _89
REMARK   35  A    between atoms: _89  and  _90
REMARK   36  A    between atoms: _90  and  _91
REMARK   37  A    between atoms: _93  and  _95
REMARK   38  A    between atoms: _95  and  _96
REMARK   39  A    between atoms: _95  and  _98
REMARK   40  A    between atoms: _98  and  _99
REMARK   41  A    between atoms: _99  and  _100
REMARK   42  A    between atoms: _103  and  _105
REMARK   43  A    between atoms: _105  and  _106
REMARK   44  A    between atoms: _105  and  _108
REMARK   45  A    between atoms: _111  and  _113
REMARK   46  A    between atoms: _113  and  _114
REMARK   47  A    between atoms: _116  and  _118
REMARK   48  A    between atoms: _118  and  _119
REMARK   49  A    between atoms: _118  and  _121
REMARK   50  A    between atoms: _124  and  _126
REMARK   51  A    between atoms: _126  and  _127
REMARK   52  A    between atoms: _126  and  _129
REMARK   53  A    between atoms: _129  and  _130
REMARK   54  A    between atoms: _136  and  _138
REMARK   55  A    between atoms: _138  and  _139
REMARK   56  A    between atoms: _138  and  _141
REMARK   57  A    between atoms: _144  and  _146
REMARK   58  A    between atoms: _146  and  _147
REMARK   59  A    between atoms: _146  and  _149
REMARK   60  A    between atoms: _149  and  _150
REMARK   61  A    between atoms: _156  and  _158
REMARK   62  A    between atoms: _158  and  _159
REMARK   63  A    between atoms: _158  and  _161
REMARK   64  A    between atoms: _161  and  _162
REMARK   65  A    between atoms: _167  and  _168
REMARK   66  A    between atoms: _170  and  _172
REMARK   67  A    between atoms: _172  and  _173
REMARK   68  A    between atoms: _172  and  _175
REMARK   69  A    between atoms: _175  and  _176
REMARK   70  A    between atoms: _176  and  _177
REMARK   71  A    between atoms: _179  and  _181
REMARK   72  A    between atoms: _181  and  _182
REMARK   73  A    between atoms: _181  and  _184
REMARK   74  A    between atoms: _184  and  _185
REMARK   75  A    between atoms: _190  and  _191
REMARK   76  A    between atoms: _193  and  _195
REMARK   77  A    between atoms: _195  and  _196
REMARK   78  A    between atoms: _195  and  _198
REMARK   79  A    between atoms: _198  and  _199
REMARK   80  A    between atoms: _199  and  _200
REMARK   81  A    between atoms: _200  and  _201
REMARK   82  A    between atoms: _210  and  _212
REMARK   83  A    between atoms: _212  and  _213
REMARK   84  A    between atoms: _212  and  _215
REMARK   85  A    between atoms: _215  and  _216
REMARK   86  A    between atoms: _216  and  _217
REMARK   87  A    between atoms: _220  and  _222
REMARK   88  A    between atoms: _222  and  _223
REMARK   89  A    between atoms: _222  and  _225
REMARK   90  A    between atoms: _225  and  _226
REMARK   91  A    between atoms: _226  and  _227
REMARK   92  A    between atoms: _232  and  _234
REMARK   93  A    between atoms: _234  and  _235
REMARK   94  A    between atoms: _234  and  _237
REMARK   95  A    between atoms: _237  and  _238
REMARK   96  A    between atoms: _238  and  _239
REMARK   97  A    between atoms: _239  and  _240
REMARK   98  A    between atoms: _240  and  _241
REMARK   99  A    between atoms: _245  and  _247
REMARK  100  A    between atoms: _247  and  _248
REMARK  101  A    between atoms: _251  and  _253
REMARK  102  A    between atoms: _253  and  _254
REMARK  103  A    between atoms: _256  and  _258
REMARK  104  A    between atoms: _258  and  _259
REMARK  105  A    between atoms: _258  and  _261
REMARK  106  A    between atoms: _261  and  _262
REMARK  107  A    between atoms: _267  and  _269
REMARK  108  A    between atoms: _269  and  _270
REMARK  109  A    between atoms: _269  and  _272
REMARK  110  A    between atoms: _272  and  _273
REMARK  111  A    between atoms: _273  and  _274
REMARK  112  A    between atoms: _277  and  _279
REMARK  113  A    between atoms: _279  and  _280
REMARK  114  A    between atoms: _279  and  _282
REMARK  115  A    between atoms: _282  and  _283
REMARK  116  A    between atoms: _283  and  _284
REMARK  117  A    between atoms: _289  and  _291
REMARK  118  A    between atoms: _291  and  _292
REMARK  119  A    between atoms: _291  and  _294
REMARK  120  A    between atoms: _294  and  _295
REMARK  121  A    between atoms: _297  and  _299
REMARK  122  A    between atoms: _299  and  _300
REMARK  123  A    between atoms: _299  and  _302
REMARK  124  A    between atoms: _302  and  _303
REMARK  125  A    between atoms: _309  and  _311
REMARK  126  A    between atoms: _311  and  _312
REMARK  127  A    between atoms: _311  and  _314
REMARK  128  A    between atoms: _314  and  _315
REMARK  129  A    between atoms: _315  and  _316
REMARK  130  A    between atoms: _316  and  _317
REMARK  131  A    between atoms: _326  and  _328
REMARK  132  A    between atoms: _328  and  _329
REMARK  133  A    between atoms: _328  and  _331
REMARK  134  A    between atoms: _334  and  _336
REMARK  135  A    between atoms: _336  and  _337
REMARK  136  A    between atoms: _336  and  _339
REMARK  137  A    between atoms: _339  and  _340
REMARK  138  A    between atoms: _343  and  _345
REMARK  139  A    between atoms: _345  and  _346
REMARK  140  A    between atoms: _345  and  _348
REMARK  141  A    between atoms: _348  and  _349
REMARK  142  A    between atoms: _352  and  _354
REMARK  143  A    between atoms: _354  and  _355
REMARK  144  A    between atoms: _354  and  _357
REMARK  145  A    between atoms: _357  and  _358
REMARK  146  A    between atoms: _358  and  _359
REMARK  147  A    between atoms: _359  and  _360
REMARK  148  A    between atoms: _369  and  _371
REMARK  149  A    between atoms: _371  and  _372
REMARK  150  A    between atoms: _371  and  _374
REMARK  151  A    between atoms: _374  and  _375
REMARK  152  A    between atoms: _378  and  _380
REMARK  153  A    between atoms: _380  and  _381
REMARK  154  A    between atoms: _380  and  _383
REMARK  155  A    between atoms: _383  and  _384
REMARK  156  A    between atoms: _387  and  _389
REMARK  157  A    between atoms: _389  and  _390
REMARK  158  A    between atoms: _389  and  _392
REMARK  159  A    between atoms: _392  and  _393
REMARK  160  A    between atoms: _398  and  _399
REMARK  161  A    between atoms: _401  and  _403
REMARK  162  A    between atoms: _403  and  _404
REMARK  163  A    between atoms: _403  and  _406
REMARK  164  A    between atoms: _406  and  _407
REMARK  165  A    between atoms: _412  and  _413
REMARK  166  A    between atoms: _415  and  _417
REMARK  167  A    between atoms: _417  and  _418
REMARK  168  A    between atoms: _417  and  _420
REMARK  169  A    between atoms: _420  and  _421
REMARK  170  A    between atoms: _424  and  _426
REMARK  171  A    between atoms: _426  and  _427
REMARK  172  A    between atoms: _426  and  _429
REMARK  173  A    between atoms: _429  and  _430
REMARK  174  A    between atoms: _430  and  _431
REMARK  175  A    between atoms: _436  and  _438
REMARK  176  A    between atoms: _438  and  _439
REMARK  177  A    between atoms: _438  and  _441
REMARK  178  A    between atoms: _444  and  _446
REMARK  179  A    between atoms: _446  and  _447
REMARK  180  A    between atoms: _446  and  _449
REMARK  181  A    between atoms: _449  and  _450
REMARK  182  A    between atoms: _453  and  _455
REMARK  183  A    between atoms: _455  and  _456
REMARK  184  A    between atoms: _455  and  _458
REMARK  185  A    between atoms: _458  and  _459
REMARK  186  A    between atoms: _461  and  _463
REMARK  187  A    between atoms: _463  and  _464
REMARK  188  A    between atoms: _466  and  _468
REMARK  189  A    between atoms: _468  and  _469
REMARK  190  A    between atoms: _468  and  _471
REMARK  191  A    between atoms: _471  and  _472
REMARK  192  A    between atoms: _472  and  _774
REMARK  193  A    between atoms: _473  and  _475
REMARK  194  A    between atoms: _475  and  _476
REMARK  195  A    between atoms: _475  and  _478
REMARK  196  A    between atoms: _478  and  _479
REMARK  197  A    between atoms: _484  and  _485
REMARK  198  A    between atoms: _487  and  _489
REMARK  199  A    between atoms: _489  and  _490
REMARK  200  A    between atoms: _489  and  _492
REMARK  201  A    between atoms: _492  and  _493
REMARK  202  A    between atoms: _493  and  _494
REMARK  203  A    between atoms: _499  and  _501
REMARK  204  A    between atoms: _501  and  _502
REMARK  205  A    between atoms: _501  and  _504
REMARK  206  A    between atoms: _504  and  _505
REMARK  207  A    between atoms: _505  and  _506
REMARK  208  A    between atoms: _511  and  _513
REMARK  209  A    between atoms: _513  and  _514
REMARK  210  A    between atoms: _513  and  _516
REMARK  211  A    between atoms: _516  and  _517
REMARK  212  A    between atoms: _522  and  _523
REMARK  213  A    between atoms: _525  and  _527
REMARK  214  A    between atoms: _527  and  _528
REMARK  215  A    between atoms: _531  and  _533
REMARK  216  A    between atoms: _533  and  _534
REMARK  217  A    between atoms: _533  and  _536
REMARK  218  A    between atoms: _536  and  _537
REMARK  219  A    between atoms: _542  and  _543
REMARK  220  A    between atoms: _545  and  _547
REMARK  221  A    between atoms: _547  and  _548
REMARK  222  A    between atoms: _547  and  _550
REMARK  223  A    between atoms: _550  and  _551
REMARK  224  A    between atoms: _556  and  _557
REMARK  225  A    between atoms: _559  and  _561
REMARK  226  A    between atoms: _561  and  _562
REMARK  227  A    between atoms: _561  and  _564
REMARK  228  A    between atoms: _564  and  _565
REMARK  229  A    between atoms: _568  and  _570
REMARK  230  A    between atoms: _570  and  _571
REMARK  231  A    between atoms: _574  and  _576
REMARK  232  A    between atoms: _576  and  _577
REMARK  233  A    between atoms: _580  and  _582
REMARK  234  A    between atoms: _582  and  _583
REMARK  235  A    between atoms: _582  and  _585
REMARK  236  A    between atoms: _585  and  _586
REMARK  237  A    between atoms: _589  and  _591
REMARK  238  A    between atoms: _591  and  _592
REMARK  239  A    between atoms: _591  and  _594
REMARK  240  A    between atoms: _594  and  _595
REMARK  241  A    between atoms: _598  and  _600
REMARK  242  A    between atoms: _600  and  _601
REMARK  243  A    between atoms: _600  and  _603
REMARK  244  A    between atoms: _603  and  _604
REMARK  245  A    between atoms: _607  and  _609
REMARK  246  A    between atoms: _609  and  _610
REMARK  247  A    between atoms: _609  and  _612
REMARK  248  A    between atoms: _612  and  _613
REMARK  249  A    between atoms: _613  and  _614
REMARK  250  A    between atoms: _614  and  _615
REMARK  251  A    between atoms: _615  and  _616
REMARK  252  A    between atoms: _620  and  _622
REMARK  253  A    between atoms: _622  and  _623
REMARK  254  A    between atoms: _622  and  _625
REMARK  255  A    between atoms: _625  and  _626
REMARK  256  A    between atoms: _631  and  _633
REMARK  257  A    between atoms: _633  and  _634
REMARK  258  A    between atoms: _633  and  _636
REMARK  259  A    between atoms: _636  and  _637
REMARK  260  A    between atoms: _637  and  _638
REMARK  261  A    between atoms: _638  and  _639
REMARK  262  A    between atoms: _639  and  _640
REMARK  263  A    between atoms: _644  and  _646
REMARK  264  A    between atoms: _646  and  _647
REMARK  265  A    between atoms: _646  and  _649
REMARK  266  A    between atoms: _649  and  _650
REMARK  267  A    between atoms: _660  and  _662
REMARK  268  A    between atoms: _662  and  _663
REMARK  269  A    between atoms: _666  and  _668
REMARK  270  A    between atoms: _668  and  _669
REMARK  271  A    between atoms: _671  and  _673
REMARK  272  A    between atoms: _673  and  _674
REMARK  273  A    between atoms: _673  and  _676
REMARK  274  A    between atoms: _676  and  _677
REMARK  275  A    between atoms: _677  and  _678
REMARK  276  A    between atoms: _681  and  _683
REMARK  277  A    between atoms: _683  and  _684
REMARK  278  A    between atoms: _687  and  _689
REMARK  279  A    between atoms: _689  and  _690
REMARK  280  A    between atoms: _689  and  _692
REMARK  281  A    between atoms: _692  and  _693
REMARK  282  A    between atoms: _693  and  _694
REMARK  283  A    between atoms: _694  and  _695
REMARK  284  A    between atoms: _704  and  _706
REMARK  285  A    between atoms: _706  and  _707
REMARK  286  A    between atoms: _706  and  _709
REMARK  287  A    between atoms: _709  and  _710
REMARK  288  A    between atoms: _713  and  _715
REMARK  289  A    between atoms: _715  and  _716
REMARK  290  A    between atoms: _715  and  _718
REMARK  291  A    between atoms: _718  and  _719
REMARK  292  A    between atoms: _719  and  _720
REMARK  293  A    between atoms: _720  and  _721
REMARK  294  A    between atoms: _730  and  _732
REMARK  295  A    between atoms: _732  and  _733
REMARK  296  A    between atoms: _736  and  _738
REMARK  297  A    between atoms: _738  and  _739
REMARK  298  A    between atoms: _738  and  _741
REMARK  299  A    between atoms: _741  and  _742
REMARK  300  A    between atoms: _747  and  _748
REMARK  301  A    between atoms: _750  and  _752
REMARK  302  A    between atoms: _752  and  _753
REMARK  303  A    between atoms: _752  and  _755
REMARK  304  A    between atoms: _755  and  _756
REMARK  305  A    between atoms: _759  and  _761
REMARK  306  A    between atoms: _761  and  _762
REMARK  307  A    between atoms: _761  and  _764
REMARK  308  A    between atoms: _764  and  _765
REMARK  309  A    between atoms: _768  and  _770
REMARK  310  A    between atoms: _770  and  _771
REMARK  311  A    between atoms: _770  and  _773
REMARK  312  A    between atoms: _773  and  _774
REMARK  313  A    between atoms: _775  and  _777
REMARK  314  A    between atoms: _777  and  _778
REMARK  315  A    between atoms: _777  and  _780
REMARK  316  A    between atoms: _783  and  _785
REMARK  317  A    between atoms: _785  and  _786
REMARK  318  A    between atoms: _785  and  _788
REMARK  319  A    between atoms: _788  and  _789
REMARK  320  A    between atoms: _789  and  _790
REMARK  321  A    between atoms: _793  and  _795
REMARK  322  A    between atoms: _795  and  _796
REMARK  323  A    between atoms: _795  and  _798
REMARK  324  A    between atoms: _798  and  _799
REMARK  325  A    between atoms: _809  and  _811
REMARK  326  A    between atoms: _811  and  _812
REMARK  327  A    between atoms: _811  and  _814
REMARK  328  A    between atoms: _814  and  _815
REMARK  329  A    between atoms: _818  and  _820
REMARK  330  A    between atoms: _820  and  _821
REMARK  331  A    between atoms: _820  and  _823
REMARK  332  A    between atoms: _823  and  _824
REMARK  333  A    between atoms: _829  and  _830
REMARK                            x       y       z     vdW  Elec       q    Type
REMARK                         _______ _______ _______ _____ _____    ______ ____
ROOT
ATOM      1  O   HOH     1     -18.484   6.752  43.040  0.00  0.00    +0.000 OA
ENDROOT
TORSDOF 0
REMARK  Name = ../refined-set-2016/3p9l/3p9l_pocket.pdb
REMARK  333 active torsions:
REMARK  status: ('A' for Active; 'I' for Inactive)
REMARK    1  A    between atoms: _1  and  _3
REMARK    2  A    between atoms: _3  and  _4
REMARK    3  A    between atoms: _3  and  _6
REMARK    4  A    between atoms: _6  and  _7
REMARK    5  A    between atoms: _10  and  _12
REMARK    6  A    between atoms: _12  and  _13
REMARK    7  A    between atoms: _12  and  _15
REMARK    8  A    between atoms: _15  and  _16
REMARK    9  A    between atoms: _16  and  _17
REMARK   10  A    between atoms: _17  and  _18
REMARK   11  A    between atoms: _27  and  _29
REMARK   12  A    between atoms: _29  and  _30
REMARK   13  A    between atoms: _29  and  _32
REMARK   14  A    between atoms: _32  and  _33
REMARK   15  A    between atoms: _38  and  _39
REMARK   16  A    between atoms: _41  and  _43
REMARK   17  A    between atoms: _43  and  _44
REMARK   18  A    between atoms: _43  and  _46
REMARK   19  A    between atoms: _46  and  _47
REMARK   20  A    between atoms: _53  and  _55
REMARK   21  A    between atoms: _55  and  _56
REMARK   22  A    between atoms: _55  and  _58
REMARK   23  A    between atoms: _61  and  _63
REMARK   24  A    between atoms: _63  and  _64
REMARK   25  A    between atoms: _63  and  _66
REMARK   26  A    between atoms: _66  and  _67
REMARK   27  A    between atoms: _70  and  _72
REMARK   28  A    between atoms: _72  and  _73
REMARK   29  A    between atoms: _72  and  _75
REMARK   30  A    between atoms: _75  and  _76
REMARK   31  A    between atoms: _81  and  _82
REMARK   32  A    between atoms: _84  and  _86
REMARK   33  A    between atoms: _86  and  _87
REMARK   34  A    between atoms: _86  and  _89
REMARK   35  A    between atoms: _89  and  _90
REMARK   36  A    between atoms: _90  and  _91
REMARK   37  A    between atoms: _93  and  _95
REMARK   38  A    between atoms: _95  and  _96
REMARK   39  A    between atoms: _95  and  _98
REMARK   40  A    between atoms: _98  and  _99
REMARK   41  A    between atoms: _99  and  _100
REMARK   42  A    between atoms: _103  and  _105
REMARK   43  A    between atoms: _105  and  _106
REMARK   44  A    between atoms: _105  and  _108
REMARK   45  A    between atoms: _111  and  _113
REMARK   46  A    between atoms: _113  and  _114
REMARK   47  A    between atoms: _116  and  _118
REMARK   48  A    between atoms: _118  and  _119
REMARK   49  A    between atoms: _118  and  _121
REMARK   50  A    between atoms: _124  and  _126
REMARK   51  A    between atoms: _126  and  _127
REMARK   52  A    between atoms: _126  and  _129
REMARK   53  A    between atoms: _129  and  _130
REMARK   54  A    between atoms: _136  and  _138
REMARK   55  A    between atoms: _138  and  _139
REMARK   56  A    between atoms: _138  and  _141
REMARK   57  A    between atoms: _144  and  _146
REMARK   58  A    between atoms: _146  and  _147
REMARK   59  A    between atoms: _146  and  _149
REMARK   60  A    between atoms: _149  and  _150
REMARK   61  A    between atoms: _156  and  _158
REMARK   62  A    between atoms: _158  and  _159
REMARK   63  A    between atoms: _158  and  _161
REMARK   64  A    between atoms: _161  and  _162
REMARK   65  A    between atoms: _167  and  _168
REMARK   66  A    between atoms: _170  and  _172
REMARK   67  A    between atoms: _172  and  _173
REMARK   68  A    between atoms: _172  and  _175
REMARK   69  A    between atoms: _175  and  _176
REMARK   70  A    between atoms: _176  and  _177
REMARK   71  A    between atoms: _179  and  _181
REMARK   72  A    between atoms: _181  and  _182
REMARK   73  A    between atoms: _181  and  _184
REMARK   74  A    between atoms: _184  and  _185
REMARK   75  A    between atoms: _190  and  _191
REMARK   76  A    between atoms: _193  and  _195
REMARK   77  A    between atoms: _195  and  _196
REMARK   78  A    between atoms: _195  and  _198
REMARK   79  A    between atoms: _198  and  _199
REMARK   80  A    between atoms: _199  and  _200
REMARK   81  A    between atoms: _200  and  _201
REMARK   82  A    between atoms: _210  and  _212
REMARK   83  A    between atoms: _212  and  _213
REMARK   84  A    between atoms: _212  and  _215
REMARK   85  A    between atoms: _215  and  _216
REMARK   86  A    between atoms: _216  and  _217
REMARK   87  A    between atoms: _220  and  _222
REMARK   88  A    between atoms: _222  and  _223
REMARK   89  A    between atoms: _222  and  _225
REMARK   90  A    between atoms: _225  and  _226
REMARK   91  A    between atoms: _226  and  _227
REMARK   92  A    between atoms: _232  and  _234
REMARK   93  A    between atoms: _234  and  _235
REMARK   94  A    between atoms: _234  and  _237
REMARK   95  A    between atoms: _237  and  _238
REMARK   96  A    between atoms: _238  and  _239
REMARK   97  A    between atoms: _239  and  _240
REMARK   98  A    between atoms: _240  and  _241
REMARK   99  A    between atoms: _245  and  _247
REMARK  100  A    between atoms: _247  and  _248
REMARK  101  A    between atoms: _251  and  _253
REMARK  102  A    between atoms: _253  and  _254
REMARK  103  A    between atoms: _256  and  _258
REMARK  104  A    between atoms: _258  and  _259
REMARK  105  A    between atoms: _258  and  _261
REMARK  106  A    between atoms: _261  and  _262
REMARK  107  A    between atoms: _267  and  _269
REMARK  108  A    between atoms: _269  and  _270
REMARK  109  A    between atoms: _269  and  _272
REMARK  110  A    between atoms: _272  and  _273
REMARK  111  A    between atoms: _273  and  _274
REMARK  112  A    between atoms: _277  and  _279
REMARK  113  A    between atoms: _279  and  _280
REMARK  114  A    between atoms: _279  and  _282
REMARK  115  A    between atoms: _282  and  _283
REMARK  116  A    between atoms: _283  and  _284
REMARK  117  A    between atoms: _289  and  _291
REMARK  118  A    between atoms: _291  and  _292
REMARK  119  A    between atoms: _291  and  _294
REMARK  120  A    between atoms: _294  and  _295
REMARK  121  A    between atoms: _297  and  _299
REMARK  122  A    between atoms: _299  and  _300
REMARK  123  A    between atoms: _299  and  _302
REMARK  124  A    between atoms: _302  and  _303
REMARK  125  A    between atoms: _309  and  _311
REMARK  126  A    between atoms: _311  and  _312
REMARK  127  A    between atoms: _311  and  _314
REMARK  128  A    between atoms: _314  and  _315
REMARK  129  A    between atoms: _315  and  _316
REMARK  130  A    between atoms: _316  and  _317
REMARK  131  A    between atoms: _326  and  _328
REMARK  132  A    between atoms: _328  and  _329
REMARK  133  A    between atoms: _328  and  _331
REMARK  134  A    between atoms: _334  and  _336
REMARK  135  A    between atoms: _336  and  _337
REMARK  136  A    between atoms: _336  and  _339
REMARK  137  A    between atoms: _339  and  _340
REMARK  138  A    between atoms: _343  and  _345
REMARK  139  A    between atoms: _345  and  _346
REMARK  140  A    between atoms: _345  and  _348
REMARK  141  A    between atoms: _348  and  _349
REMARK  142  A    between atoms: _352  and  _354
REMARK  143  A    between atoms: _354  and  _355
REMARK  144  A    between atoms: _354  and  _357
REMARK  145  A    between atoms: _357  and  _358
REMARK  146  A    between atoms: _358  and  _359
REMARK  147  A    between atoms: _359  and  _360
REMARK  148  A    between atoms: _369  and  _371
REMARK  149  A    between atoms: _371  and  _372
REMARK  150  A    between atoms: _371  and  _374
REMARK  151  A    between atoms: _374  and  _375
REMARK  152  A    between atoms: _378  and  _380
REMARK  153  A    between atoms: _380  and  _381
REMARK  154  A    between atoms: _380  and  _383
REMARK  155  A    between atoms: _383  and  _384
REMARK  156  A    between atoms: _387  and  _389
REMARK  157  A    between atoms: _389  and  _390
REMARK  158  A    between atoms: _389  and  _392
REMARK  159  A    between atoms: _392  and  _393
REMARK  160  A    between atoms: _398  and  _399
REMARK  161  A    between atoms: _401  and  _403
REMARK  162  A    between atoms: _403  and  _404
REMARK  163  A    between atoms: _403  and  _406
REMARK  164  A    between atoms: _406  and  _407
REMARK  165  A    between atoms: _412  and  _413
REMARK  166  A    between atoms: _415  and  _417
REMARK  167  A    between atoms: _417  and  _418
REMARK  168  A    between atoms: _417  and  _420
REMARK  169  A    between atoms: _420  and  _421
REMARK  170  A    between atoms: _424  and  _426
REMARK  171  A    between atoms: _426  and  _427
REMARK  172  A    between atoms: _426  and  _429
REMARK  173  A    between atoms: _429  and  _430
REMARK  174  A    between atoms: _430  and  _431
REMARK  175  A    between atoms: _436  and  _438
REMARK  176  A    between atoms: _438  and  _439
REMARK  177  A    between atoms: _438  and  _441
REMARK  178  A    between atoms: _444  and  _446
REMARK  179  A    between atoms: _446  and  _447
REMARK  180  A    between atoms: _446  and  _449
REMARK  181  A    between atoms: _449  and  _450
REMARK  182  A    between atoms: _453  and  _455
REMARK  183  A    between atoms: _455  and  _456
REMARK  184  A    between atoms: _455  and  _458
REMARK  185  A    between atoms: _458  and  _459
REMARK  186  A    between atoms: _461  and  _463
REMARK  187  A    between atoms: _463  and  _464
REMARK  188  A    between atoms: _466  and  _468
REMARK  189  A    between atoms: _468  and  _469
REMARK  190  A    between atoms: _468  and  _471
REMARK  191  A    between atoms: _471  and  _472
REMARK  192  A    between atoms: _472  and  _774
REMARK  193  A    between atoms: _473  and  _475
REMARK  194  A    between atoms: _475  and  _476
REMARK  195  A    between atoms: _475  and  _478
REMARK  196  A    between atoms: _478  and  _479
REMARK  197  A    between atoms: _484  and  _485
REMARK  198  A    between atoms: _487  and  _489
REMARK  199  A    between atoms: _489  and  _490
REMARK  200  A    between atoms: _489  and  _492
REMARK  201  A    between atoms: _492  and  _493
REMARK  202  A    between atoms: _493  and  _494
REMARK  203  A    between atoms: _499  and  _501
REMARK  204  A    between atoms: _501  and  _502
REMARK  205  A    between atoms: _501  and  _504
REMARK  206  A    between atoms: _504  and  _505
REMARK  207  A    between atoms: _505  and  _506
REMARK  208  A    between atoms: _511  and  _513
REMARK  209  A    between atoms: _513  and  _514
REMARK  210  A    between atoms: _513  and  _516
REMARK  211  A    between atoms: _516  and  _517
REMARK  212  A    between atoms: _522  and  _523
REMARK  213  A    between atoms: _525  and  _527
REMARK  214  A    between atoms: _527  and  _528
REMARK  215  A    between atoms: _531  and  _533
REMARK  216  A    between atoms: _533  and  _534
REMARK  217  A    between atoms: _533  and  _536
REMARK  218  A    between atoms: _536  and  _537
REMARK  219  A    between atoms: _542  and  _543
REMARK  220  A    between atoms: _545  and  _547
REMARK  221  A    between atoms: _547  and  _548
REMARK  222  A    between atoms: _547  and  _550
REMARK  223  A    between atoms: _550  and  _551
REMARK  224  A    between atoms: _556  and  _557
REMARK  225  A    between atoms: _559  and  _561
REMARK  226  A    between atoms: _561  and  _562
REMARK  227  A    between atoms: _561  and  _564
REMARK  228  A    between atoms: _564  and  _565
REMARK  229  A    between atoms: _568  and  _570
REMARK  230  A    between atoms: _570  and  _571
REMARK  231  A    between atoms: _574  and  _576
REMARK  232  A    between atoms: _576  and  _577
REMARK  233  A    between atoms: _580  and  _582
REMARK  234  A    between atoms: _582  and  _583
REMARK  235  A    between atoms: _582  and  _585
REMARK  236  A    between atoms: _585  and  _586
REMARK  237  A    between atoms: _589  and  _591
REMARK  238  A    between atoms: _591  and  _592
REMARK  239  A    between atoms: _591  and  _594
REMARK  240  A    between atoms: _594  and  _595
REMARK  241  A    between atoms: _598  and  _600
REMARK  242  A    between atoms: _600  and  _601
REMARK  243  A    between atoms: _600  and  _603
REMARK  244  A    between atoms: _603  and  _604
REMARK  245  A    between atoms: _607  and  _609
REMARK  246  A    between atoms: _609  and  _610
REMARK  247  A    between atoms: _609  and  _612
REMARK  248  A    between atoms: _612  and  _613
REMARK  249  A    between atoms: _613  and  _614
REMARK  250  A    between atoms: _614  and  _615
REMARK  251  A    between atoms: _615  and  _616
REMARK  252  A    between atoms: _620  and  _622
REMARK  253  A    between atoms: _622  and  _623
REMARK  254  A    between atoms: _622  and  _625
REMARK  255  A    between atoms: _625  and  _626
REMARK  256  A    between atoms: _631  and  _633
REMARK  257  A    between atoms: _633  and  _634
REMARK  258  A    between atoms: _633  and  _636
REMARK  259  A    between atoms: _636  and  _637
REMARK  260  A    between atoms: _637  and  _638
REMARK  261  A    between atoms: _638  and  _639
REMARK  262  A    between atoms: _639  and  _640
REMARK  263  A    between atoms: _644  and  _646
REMARK  264  A    between atoms: _646  and  _647
REMARK  265  A    between atoms: _646  and  _649
REMARK  266  A    between atoms: _649  and  _650
REMARK  267  A    between atoms: _660  and  _662
REMARK  268  A    between atoms: _662  and  _663
REMARK  269  A    between atoms: _666  and  _668
REMARK  270  A    between atoms: _668  and  _669
REMARK  271  A    between atoms: _671  and  _673
REMARK  272  A    between atoms: _673  and  _674
REMARK  273  A    between atoms: _673  and  _676
REMARK  274  A    between atoms: _676  and  _677
REMARK  275  A    between atoms: _677  and  _678
REMARK  276  A    between atoms: _681  and  _683
REMARK  277  A    between atoms: _683  and  _684
REMARK  278  A    between atoms: _687  and  _689
REMARK  279  A    between atoms: _689  and  _690
REMARK  280  A    between atoms: _689  and  _692
REMARK  281  A    between atoms: _692  and  _693
REMARK  282  A    between atoms: _693  and  _694
REMARK  283  A    between atoms: _694  and  _695
REMARK  284  A    between atoms: _704  and  _706
REMARK  285  A    between atoms: _706  and  _707
REMARK  286  A    between atoms: _706  and  _709
REMARK  287  A    between atoms: _709  and  _710
REMARK  288  A    between atoms: _713  and  _715
REMARK  289  A    between atoms: _715  and  _716
REMARK  290  A    between atoms: _715  and  _718
REMARK  291  A    between atoms: _718  and  _719
REMARK  292  A    between atoms: _719  and  _720
REMARK  293  A    between atoms: _720  and  _721
REMARK  294  A    between atoms: _730  and  _732
REMARK  295  A    between atoms: _732  and  _733
REMARK  296  A    between atoms: _736  and  _738
REMARK  297  A    between atoms: _738  and  _739
REMARK  298  A    between atoms: _738  and  _741
REMARK  299  A    between atoms: _741  and  _742
REMARK  300  A    between atoms: _747  and  _748
REMARK  301  A    between atoms: _750  and  _752
REMARK  302  A    between atoms: _752  and  _753
REMARK  303  A    between atoms: _752  and  _755
REMARK  304  A    between atoms: _755  and  _756
REMARK  305  A    between atoms: _759  and  _761
REMARK  306  A    between atoms: _761  and  _762
REMARK  307  A    between atoms: _761  and  _764
REMARK  308  A    between atoms: _764  and  _765
REMARK  309  A    between atoms: _768  and  _770
REMARK  310  A    between atoms: _770  and  _771
REMARK  311  A    between atoms: _770  and  _773
REMARK  312  A    between atoms: _773  and  _774
REMARK  313  A    between atoms: _775  and  _777
REMARK  314  A    between atoms: _777  and  _778
REMARK  315  A    between atoms: _777  and  _780
REMARK  316  A    between atoms: _783  and  _785
REMARK  317  A    between atoms: _785  and  _786
REMARK  318  A    between atoms: _785  and  _788
REMARK  319  A    between atoms: _788  and  _789
REMARK  320  A    between atoms: _789  and  _790
REMARK  321  A    between atoms: _793  and  _795
REMARK  322  A    between atoms: _795  and  _796
REMARK  323  A    between atoms: _795  and  _798
REMARK  324  A    between atoms: _798  and  _799
REMARK  325  A    between atoms: _809  and  _811
REMARK  326  A    between atoms: _811  and  _812
REMARK  327  A    between atoms: _811  and  _814
REMARK  328  A    between atoms: _814  and  _815
REMARK  329  A    between atoms: _818  and  _820
REMARK  330  A    between atoms: _820  and  _821
REMARK  331  A    between atoms: _820  and  _823
REMARK  332  A    between atoms: _823  and  _824
REMARK  333  A    between atoms: _829  and  _830
REMARK                            x       y       z     vdW  Elec       q    Type
REMARK                         _______ _______ _______ _____ _____    ______ ____
ROOT
ATOM      1  O   HOH     1     -19.562  13.741  37.595  0.00  0.00    +0.000 OA
ENDROOT
TORSDOF 0
REMARK  Name = ../refined-set-2016/3p9l/3p9l_pocket.pdb
REMARK  333 active torsions:
REMARK  status: ('A' for Active; 'I' for Inactive)
REMARK    1  A    between atoms: _1  and  _3
REMARK    2  A    between atoms: _3  and  _4
REMARK    3  A    between atoms: _3  and  _6
REMARK    4  A    between atoms: _6  and  _7
REMARK    5  A    between atoms: _10  and  _12
REMARK    6  A    between atoms: _12  and  _13
REMARK    7  A    between atoms: _12  and  _15
REMARK    8  A    between atoms: _15  and  _16
REMARK    9  A    between atoms: _16  and  _17
REMARK   10  A    between atoms: _17  and  _18
REMARK   11  A    between atoms: _27  and  _29
REMARK   12  A    between atoms: _29  and  _30
REMARK   13  A    between atoms: _29  and  _32
REMARK   14  A    between atoms: _32  and  _33
REMARK   15  A    between atoms: _38  and  _39
REMARK   16  A    between atoms: _41  and  _43
REMARK   17  A    between atoms: _43  and  _44
REMARK   18  A    between atoms: _43  and  _46
REMARK   19  A    between atoms: _46  and  _47
REMARK   20  A    between atoms: _53  and  _55
REMARK   21  A    between atoms: _55  and  _56
REMARK   22  A    between atoms: _55  and  _58
REMARK   23  A    between atoms: _61  and  _63
REMARK   24  A    between atoms: _63  and  _64
REMARK   25  A    between atoms: _63  and  _66
REMARK   26  A    between atoms: _66  and  _67
REMARK   27  A    between atoms: _70  and  _72
REMARK   28  A    between atoms: _72  and  _73
REMARK   29  A    between atoms: _72  and  _75
REMARK   30  A    between atoms: _75  and  _76
REMARK   31  A    between atoms: _81  and  _82
REMARK   32  A    between atoms: _84  and  _86
REMARK   33  A    between atoms: _86  and  _87
REMARK   34  A    between atoms: _86  and  _89
REMARK   35  A    between atoms: _89  and  _90
REMARK   36  A    between atoms: _90  and  _91
REMARK   37  A    between atoms: _93  and  _95
REMARK   38  A    between atoms: _95  and  _96
REMARK   39  A    between atoms: _95  and  _98
REMARK   40  A    between atoms: _98  and  _99
REMARK   41  A    between atoms: _99  and  _100
REMARK   42  A    between atoms: _103  and  _105
REMARK   43  A    between atoms: _105  and  _106
REMARK   44  A    between atoms: _105  and  _108
REMARK   45  A    between atoms: _111  and  _113
REMARK   46  A    between atoms: _113  and  _114
REMARK   47  A    between atoms: _116  and  _118
REMARK   48  A    between atoms: _118  and  _119
REMARK   49  A    between atoms: _118  and  _121
REMARK   50  A    between atoms: _124  and  _126
REMARK   51  A    between atoms: _126  and  _127
REMARK   52  A    between atoms: _126  and  _129
REMARK   53  A    between atoms: _129  and  _130
REMARK   54  A    between atoms: _136  and  _138
REMARK   55  A    between atoms: _138  and  _139
REMARK   56  A    between atoms: _138  and  _141
REMARK   57  A    between atoms: _144  and  _146
REMARK   58  A    between atoms: _146  and  _147
REMARK   59  A    between atoms: _146  and  _149
REMARK   60  A    between atoms: _149  and  _150
REMARK   61  A    between atoms: _156  and  _158
REMARK   62  A    between atoms: _158  and  _159
REMARK   63  A    between atoms: _158  and  _161
REMARK   64  A    between atoms: _161  and  _162
REMARK   65  A    between atoms: _167  and  _168
REMARK   66  A    between atoms: _170  and  _172
REMARK   67  A    between atoms: _172  and  _173
REMARK   68  A    between atoms: _172  and  _175
REMARK   69  A    between atoms: _175  and  _176
REMARK   70  A    between atoms: _176  and  _177
REMARK   71  A    between atoms: _179  and  _181
REMARK   72  A    between atoms: _181  and  _182
REMARK   73  A    between atoms: _181  and  _184
REMARK   74  A    between atoms: _184  and  _185
REMARK   75  A    between atoms: _190  and  _191
REMARK   76  A    between atoms: _193  and  _195
REMARK   77  A    between atoms: _195  and  _196
REMARK   78  A    between atoms: _195  and  _198
REMARK   79  A    between atoms: _198  and  _199
REMARK   80  A    between atoms: _199  and  _200
REMARK   81  A    between atoms: _200  and  _201
REMARK   82  A    between atoms: _210  and  _212
REMARK   83  A    between atoms: _212  and  _213
REMARK   84  A    between atoms: _212  and  _215
REMARK   85  A    between atoms: _215  and  _216
REMARK   86  A    between atoms: _216  and  _217
REMARK   87  A    between atoms: _220  and  _222
REMARK   88  A    between atoms: _222  and  _223
REMARK   89  A    between atoms: _222  and  _225
REMARK   90  A    between atoms: _225  and  _226
REMARK   91  A    between atoms: _226  and  _227
REMARK   92  A    between atoms: _232  and  _234
REMARK   93  A    between atoms: _234  and  _235
REMARK   94  A    between atoms: _234  and  _237
REMARK   95  A    between atoms: _237  and  _238
REMARK   96  A    between atoms: _238  and  _239
REMARK   97  A    between atoms: _239  and  _240
REMARK   98  A    between atoms: _240  and  _241
REMARK   99  A    between atoms: _245  and  _247
REMARK  100  A    between atoms: _247  and  _248
REMARK  101  A    between atoms: _251  and  _253
REMARK  102  A    between atoms: _253  and  _254
REMARK  103  A    between atoms: _256  and  _258
REMARK  104  A    between atoms: _258  and  _259
REMARK  105  A    between atoms: _258  and  _261
REMARK  106  A    between atoms: _261  and  _262
REMARK  107  A    between atoms: _267  and  _269
REMARK  108  A    between atoms: _269  and  _270
REMARK  109  A    between atoms: _269  and  _272
REMARK  110  A    between atoms: _272  and  _273
REMARK  111  A    between atoms: _273  and  _274
REMARK  112  A    between atoms: _277  and  _279
REMARK  113  A    between atoms: _279  and  _280
REMARK  114  A    between atoms: _279  and  _282
REMARK  115  A    between atoms: _282  and  _283
REMARK  116  A    between atoms: _283  and  _284
REMARK  117  A    between atoms: _289  and  _291
REMARK  118  A    between atoms: _291  and  _292
REMARK  119  A    between atoms: _291  and  _294
REMARK  120  A    between atoms: _294  and  _295
REMARK  121  A    between atoms: _297  and  _299
REMARK  122  A    between atoms: _299  and  _300
REMARK  123  A    between atoms: _299  and  _302
REMARK  124  A    between atoms: _302  and  _303
REMARK  125  A    between atoms: _309  and  _311
REMARK  126  A    between atoms: _311  and  _312
REMARK  127  A    between atoms: _311  and  _314
REMARK  128  A    between atoms: _314  and  _315
REMARK  129  A    between atoms: _315  and  _316
REMARK  130  A    between atoms: _316  and  _317
REMARK  131  A    between atoms: _326  and  _328
REMARK  132  A    between atoms: _328  and  _329
REMARK  133  A    between atoms: _328  and  _331
REMARK  134  A    between atoms: _334  and  _336
REMARK  135  A    between atoms: _336  and  _337
REMARK  136  A    between atoms: _336  and  _339
REMARK  137  A    between atoms: _339  and  _340
REMARK  138  A    between atoms: _343  and  _345
REMARK  139  A    between atoms: _345  and  _346
REMARK  140  A    between atoms: _345  and  _348
REMARK  141  A    between atoms: _348  and  _349
REMARK  142  A    between atoms: _352  and  _354
REMARK  143  A    between atoms: _354  and  _355
REMARK  144  A    between atoms: _354  and  _357
REMARK  145  A    between atoms: _357  and  _358
REMARK  146  A    between atoms: _358  and  _359
REMARK  147  A    between atoms: _359  and  _360
REMARK  148  A    between atoms: _369  and  _371
REMARK  149  A    between atoms: _371  and  _372
REMARK  150  A    between atoms: _371  and  _374
REMARK  151  A    between atoms: _374  and  _375
REMARK  152  A    between atoms: _378  and  _380
REMARK  153  A    between atoms: _380  and  _381
REMARK  154  A    between atoms: _380  and  _383
REMARK  155  A    between atoms: _383  and  _384
REMARK  156  A    between atoms: _387  and  _389
REMARK  157  A    between atoms: _389  and  _390
REMARK  158  A    between atoms: _389  and  _392
REMARK  159  A    between atoms: _392  and  _393
REMARK  160  A    between atoms: _398  and  _399
REMARK  161  A    between atoms: _401  and  _403
REMARK  162  A    between atoms: _403  and  _404
REMARK  163  A    between atoms: _403  and  _406
REMARK  164  A    between atoms: _406  and  _407
REMARK  165  A    between atoms: _412  and  _413
REMARK  166  A    between atoms: _415  and  _417
REMARK  167  A    between atoms: _417  and  _418
REMARK  168  A    between atoms: _417  and  _420
REMARK  169  A    between atoms: _420  and  _421
REMARK  170  A    between atoms: _424  and  _426
REMARK  171  A    between atoms: _426  and  _427
REMARK  172  A    between atoms: _426  and  _429
REMARK  173  A    between atoms: _429  and  _430
REMARK  174  A    between atoms: _430  and  _431
REMARK  175  A    between atoms: _436  and  _438
REMARK  176  A    between atoms: _438  and  _439
REMARK  177  A    between atoms: _438  and  _441
REMARK  178  A    between atoms: _444  and  _446
REMARK  179  A    between atoms: _446  and  _447
REMARK  180  A    between atoms: _446  and  _449
REMARK  181  A    between atoms: _449  and  _450
REMARK  182  A    between atoms: _453  and  _455
REMARK  183  A    between atoms: _455  and  _456
REMARK  184  A    between atoms: _455  and  _458
REMARK  185  A    between atoms: _458  and  _459
REMARK  186  A    between atoms: _461  and  _463
REMARK  187  A    between atoms: _463  and  _464
REMARK  188  A    between atoms: _466  and  _468
REMARK  189  A    between atoms: _468  and  _469
REMARK  190  A    between atoms: _468  and  _471
REMARK  191  A    between atoms: _471  and  _472
REMARK  192  A    between atoms: _472  and  _774
REMARK  193  A    between atoms: _473  and  _475
REMARK  194  A    between atoms: _475  and  _476
REMARK  195  A    between atoms: _475  and  _478
REMARK  196  A    between atoms: _478  and  _479
REMARK  197  A    between atoms: _484  and  _485
REMARK  198  A    between atoms: _487  and  _489
REMARK  199  A    between atoms: _489  and  _490
REMARK  200  A    between atoms: _489  and  _492
REMARK  201  A    between atoms: _492  and  _493
REMARK  202  A    between atoms: _493  and  _494
REMARK  203  A    between atoms: _499  and  _501
REMARK  204  A    between atoms: _501  and  _502
REMARK  205  A    between atoms: _501  and  _504
REMARK  206  A    between atoms: _504  and  _505
REMARK  207  A    between atoms: _505  and  _506
REMARK  208  A    between atoms: _511  and  _513
REMARK  209  A    between atoms: _513  and  _514
REMARK  210  A    between atoms: _513  and  _516
REMARK  211  A    between atoms: _516  and  _517
REMARK  212  A    between atoms: _522  and  _523
REMARK  213  A    between atoms: _525  and  _527
REMARK  214  A    between atoms: _527  and  _528
REMARK  215  A    between atoms: _531  and  _533
REMARK  216  A    between atoms: _533  and  _534
REMARK  217  A    between atoms: _533  and  _536
REMARK  218  A    between atoms: _536  and  _537
REMARK  219  A    between atoms: _542  and  _543
REMARK  220  A    between atoms: _545  and  _547
REMARK  221  A    between atoms: _547  and  _548
REMARK  222  A    between atoms: _547  and  _550
REMARK  223  A    between atoms: _550  and  _551
REMARK  224  A    between atoms: _556  and  _557
REMARK  225  A    between atoms: _559  and  _561
REMARK  226  A    between atoms: _561  and  _562
REMARK  227  A    between atoms: _561  and  _564
REMARK  228  A    between atoms: _564  and  _565
REMARK  229  A    between atoms: _568  and  _570
REMARK  230  A    between atoms: _570  and  _571
REMARK  231  A    between atoms: _574  and  _576
REMARK  232  A    between atoms: _576  and  _577
REMARK  233  A    between atoms: _580  and  _582
REMARK  234  A    between atoms: _582  and  _583
REMARK  235  A    between atoms: _582  and  _585
REMARK  236  A    between atoms: _585  and  _586
REMARK  237  A    between atoms: _589  and  _591
REMARK  238  A    between atoms: _591  and  _592
REMARK  239  A    between atoms: _591  and  _594
REMARK  240  A    between atoms: _594  and  _595
REMARK  241  A    between atoms: _598  and  _600
REMARK  242  A    between atoms: _600  and  _601
REMARK  243  A    between atoms: _600  and  _603
REMARK  244  A    between atoms: _603  and  _604
REMARK  245  A    between atoms: _607  and  _609
REMARK  246  A    between atoms: _609  and  _610
REMARK  247  A    between atoms: _609  and  _612
REMARK  248  A    between atoms: _612  and  _613
REMARK  249  A    between atoms: _613  and  _614
REMARK  250  A    between atoms: _614  and  _615
REMARK  251  A    between atoms: _615  and  _616
REMARK  252  A    between atoms: _620  and  _622
REMARK  253  A    between atoms: _622  and  _623
REMARK  254  A    between atoms: _622  and  _625
REMARK  255  A    between atoms: _625  and  _626
REMARK  256  A    between atoms: _631  and  _633
REMARK  257  A    between atoms: _633  and  _634
REMARK  258  A    between atoms: _633  and  _636
REMARK  259  A    between atoms: _636  and  _637
REMARK  260  A    between atoms: _637  and  _638
REMARK  261  A    between atoms: _638  and  _639
REMARK  262  A    between atoms: _639  and  _640
REMARK  263  A    between atoms: _644  and  _646
REMARK  264  A    between atoms: _646  and  _647
REMARK  265  A    between atoms: _646  and  _649
REMARK  266  A    between atoms: _649  and  _650
REMARK  267  A    between atoms: _660  and  _662
REMARK  268  A    between atoms: _662  and  _663
REMARK  269  A    between atoms: _666  and  _668
REMARK  270  A    between atoms: _668  and  _669
REMARK  271  A    between atoms: _671  and  _673
REMARK  272  A    between atoms: _673  and  _674
REMARK  273  A    between atoms: _673  and  _676
REMARK  274  A    between atoms: _676  and  _677
REMARK  275  A    between atoms: _677  and  _678
REMARK  276  A    between atoms: _681  and  _683
REMARK  277  A    between atoms: _683  and  _684
REMARK  278  A    between atoms: _687  and  _689
REMARK  279  A    between atoms: _689  and  _690
REMARK  280  A    between atoms: _689  and  _692
REMARK  281  A    between atoms: _692  and  _693
REMARK  282  A    between atoms: _693  and  _694
REMARK  283  A    between atoms: _694  and  _695
REMARK  284  A    between atoms: _704  and  _706
REMARK  285  A    between atoms: _706  and  _707
REMARK  286  A    between atoms: _706  and  _709
REMARK  287  A    between atoms: _709  and  _710
REMARK  288  A    between atoms: _713  and  _715
REMARK  289  A    between atoms: _715  and  _716
REMARK  290  A    between atoms: _715  and  _718
REMARK  291  A    between atoms: _718  and  _719
REMARK  292  A    between atoms: _719  and  _720
REMARK  293  A    between atoms: _720  and  _721
REMARK  294  A    between atoms: _730  and  _732
REMARK  295  A    between atoms: _732  and  _733
REMARK  296  A    between atoms: _736  and  _738
REMARK  297  A    between atoms: _738  and  _739
REMARK  298  A    between atoms: _738  and  _741
REMARK  299  A    between atoms: _741  and  _742
REMARK  300  A    between atoms: _747  and  _748
REMARK  301  A    between atoms: _750  and  _752
REMARK  302  A    between atoms: _752  and  _753
REMARK  303  A    between atoms: _752  and  _755
REMARK  304  A    between atoms: _755  and  _756
REMARK  305  A    between atoms: _759  and  _761
REMARK  306  A    between atoms: _761  and  _762
REMARK  307  A    between atoms: _761  and  _764
REMARK  308  A    between atoms: _764  and  _765
REMARK  309  A    between atoms: _768  and  _770
REMARK  310  A    between atoms: _770  and  _771
REMARK  311  A    between atoms: _770  and  _773
REMARK  312  A    between atoms: _773  and  _774
REMARK  313  A    between atoms: _775  and  _777
REMARK  314  A    between atoms: _777  and  _778
REMARK  315  A    between atoms: _777  and  _780
REMARK  316  A    between atoms: _783  and  _785
REMARK  317  A    between atoms: _785  and  _786
REMARK  318  A    between atoms: _785  and  _788
REMARK  319  A    between atoms: _788  and  _789
REMARK  320  A    between atoms: _789  and  _790
REMARK  321  A    between atoms: _793  and  _795
REMARK  322  A    between atoms: _795  and  _796
REMARK  323  A    between atoms: _795  and  _798
REMARK  324  A    between atoms: _798  and  _799
REMARK  325  A    between atoms: _809  and  _811
REMARK  326  A    between atoms: _811  and  _812
REMARK  327  A    between atoms: _811  and  _814
REMARK  328  A    between atoms: _814  and  _815
REMARK  329  A    between atoms: _818  and  _820
REMARK  330  A    between atoms: _820  and  _821
REMARK  331  A    between atoms: _820  and  _823
REMARK  332  A    between atoms: _823  and  _824
REMARK  333  A    between atoms: _829  and  _830
REMARK                            x       y       z     vdW  Elec       q    Type
REMARK                         _______ _______ _______ _____ _____    ______ ____
ROOT
ATOM      1  O   HOH     1     -23.123  18.252  34.953  0.00  0.00    +0.000 OA
ENDROOT
TORSDOF 0
REMARK  Name = ../refined-set-2016/3p9l/3p9l_pocket.pdb
REMARK  333 active torsions:
REMARK  status: ('A' for Active; 'I' for Inactive)
REMARK    1  A    between atoms: _1  and  _3
REMARK    2  A    between atoms: _3  and  _4
REMARK    3  A    between atoms: _3  and  _6
REMARK    4  A    between atoms: _6  and  _7
REMARK    5  A    between atoms: _10  and  _12
REMARK    6  A    between atoms: _12  and  _13
REMARK    7  A    between atoms: _12  and  _15
REMARK    8  A    between atoms: _15  and  _16
REMARK    9  A    between atoms: _16  and  _17
REMARK   10  A    between atoms: _17  and  _18
REMARK   11  A    between atoms: _27  and  _29
REMARK   12  A    between atoms: _29  and  _30
REMARK   13  A    between atoms: _29  and  _32
REMARK   14  A    between atoms: _32  and  _33
REMARK   15  A    between atoms: _38  and  _39
REMARK   16  A    between atoms: _41  and  _43
REMARK   17  A    between atoms: _43  and  _44
REMARK   18  A    between atoms: _43  and  _46
REMARK   19  A    between atoms: _46  and  _47
REMARK   20  A    between atoms: _53  and  _55
REMARK   21  A    between atoms: _55  and  _56
REMARK   22  A    between atoms: _55  and  _58
REMARK   23  A    between atoms: _61  and  _63
REMARK   24  A    between atoms: _63  and  _64
REMARK   25  A    between atoms: _63  and  _66
REMARK   26  A    between atoms: _66  and  _67
REMARK   27  A    between atoms: _70  and  _72
REMARK   28  A    between atoms: _72  and  _73
REMARK   29  A    between atoms: _72  and  _75
REMARK   30  A    between atoms: _75  and  _76
REMARK   31  A    between atoms: _81  and  _82
REMARK   32  A    between atoms: _84  and  _86
REMARK   33  A    between atoms: _86  and  _87
REMARK   34  A    between atoms: _86  and  _89
REMARK   35  A    between atoms: _89  and  _90
REMARK   36  A    between atoms: _90  and  _91
REMARK   37  A    between atoms: _93  and  _95
REMARK   38  A    between atoms: _95  and  _96
REMARK   39  A    between atoms: _95  and  _98
REMARK   40  A    between atoms: _98  and  _99
REMARK   41  A    between atoms: _99  and  _100
REMARK   42  A    between atoms: _103  and  _105
REMARK   43  A    between atoms: _105  and  _106
REMARK   44  A    between atoms: _105  and  _108
REMARK   45  A    between atoms: _111  and  _113
REMARK   46  A    between atoms: _113  and  _114
REMARK   47  A    between atoms: _116  and  _118
REMARK   48  A    between atoms: _118  and  _119
REMARK   49  A    between atoms: _118  and  _121
REMARK   50  A    between atoms: _124  and  _126
REMARK   51  A    between atoms: _126  and  _127
REMARK   52  A    between atoms: _126  and  _129
REMARK   53  A    between atoms: _129  and  _130
REMARK   54  A    between atoms: _136  and  _138
REMARK   55  A    between atoms: _138  and  _139
REMARK   56  A    between atoms: _138  and  _141
REMARK   57  A    between atoms: _144  and  _146
REMARK   58  A    between atoms: _146  and  _147
REMARK   59  A    between atoms: _146  and  _149
REMARK   60  A    between atoms: _149  and  _150
REMARK   61  A    between atoms: _156  and  _158
REMARK   62  A    between atoms: _158  and  _159
REMARK   63  A    between atoms: _158  and  _161
REMARK   64  A    between atoms: _161  and  _162
REMARK   65  A    between atoms: _167  and  _168
REMARK   66  A    between atoms: _170  and  _172
REMARK   67  A    between atoms: _172  and  _173
REMARK   68  A    between atoms: _172  and  _175
REMARK   69  A    between atoms: _175  and  _176
REMARK   70  A    between atoms: _176  and  _177
REMARK   71  A    between atoms: _179  and  _181
REMARK   72  A    between atoms: _181  and  _182
REMARK   73  A    between atoms: _181  and  _184
REMARK   74  A    between atoms: _184  and  _185
REMARK   75  A    between atoms: _190  and  _191
REMARK   76  A    between atoms: _193  and  _195
REMARK   77  A    between atoms: _195  and  _196
REMARK   78  A    between atoms: _195  and  _198
REMARK   79  A    between atoms: _198  and  _199
REMARK   80  A    between atoms: _199  and  _200
REMARK   81  A    between atoms: _200  and  _201
REMARK   82  A    between atoms: _210  and  _212
REMARK   83  A    between atoms: _212  and  _213
REMARK   84  A    between atoms: _212  and  _215
REMARK   85  A    between atoms: _215  and  _216
REMARK   86  A    between atoms: _216  and  _217
REMARK   87  A    between atoms: _220  and  _222
REMARK   88  A    between atoms: _222  and  _223
REMARK   89  A    between atoms: _222  and  _225
REMARK   90  A    between atoms: _225  and  _226
REMARK   91  A    between atoms: _226  and  _227
REMARK   92  A    between atoms: _232  and  _234
REMARK   93  A    between atoms: _234  and  _235
REMARK   94  A    between atoms: _234  and  _237
REMARK   95  A    between atoms: _237  and  _238
REMARK   96  A    between atoms: _238  and  _239
REMARK   97  A    between atoms: _239  and  _240
REMARK   98  A    between atoms: _240  and  _241
REMARK   99  A    between atoms: _245  and  _247
REMARK  100  A    between atoms: _247  and  _248
REMARK  101  A    between atoms: _251  and  _253
REMARK  102  A    between atoms: _253  and  _254
REMARK  103  A    between atoms: _256  and  _258
REMARK  104  A    between atoms: _258  and  _259
REMARK  105  A    between atoms: _258  and  _261
REMARK  106  A    between atoms: _261  and  _262
REMARK  107  A    between atoms: _267  and  _269
REMARK  108  A    between atoms: _269  and  _270
REMARK  109  A    between atoms: _269  and  _272
REMARK  110  A    between atoms: _272  and  _273
REMARK  111  A    between atoms: _273  and  _274
REMARK  112  A    between atoms: _277  and  _279
REMARK  113  A    between atoms: _279  and  _280
REMARK  114  A    between atoms: _279  and  _282
REMARK  115  A    between atoms: _282  and  _283
REMARK  116  A    between atoms: _283  and  _284
REMARK  117  A    between atoms: _289  and  _291
REMARK  118  A    between atoms: _291  and  _292
REMARK  119  A    between atoms: _291  and  _294
REMARK  120  A    between atoms: _294  and  _295
REMARK  121  A    between atoms: _297  and  _299
REMARK  122  A    between atoms: _299  and  _300
REMARK  123  A    between atoms: _299  and  _302
REMARK  124  A    between atoms: _302  and  _303
REMARK  125  A    between atoms: _309  and  _311
REMARK  126  A    between atoms: _311  and  _312
REMARK  127  A    between atoms: _311  and  _314
REMARK  128  A    between atoms: _314  and  _315
REMARK  129  A    between atoms: _315  and  _316
REMARK  130  A    between atoms: _316  and  _317
REMARK  131  A    between atoms: _326  and  _328
REMARK  132  A    between atoms: _328  and  _329
REMARK  133  A    between atoms: _328  and  _331
REMARK  134  A    between atoms: _334  and  _336
REMARK  135  A    between atoms: _336  and  _337
REMARK  136  A    between atoms: _336  and  _339
REMARK  137  A    between atoms: _339  and  _340
REMARK  138  A    between atoms: _343  and  _345
REMARK  139  A    between atoms: _345  and  _346
REMARK  140  A    between atoms: _345  and  _348
REMARK  141  A    between atoms: _348  and  _349
REMARK  142  A    between atoms: _352  and  _354
REMARK  143  A    between atoms: _354  and  _355
REMARK  144  A    between atoms: _354  and  _357
REMARK  145  A    between atoms: _357  and  _358
REMARK  146  A    between atoms: _358  and  _359
REMARK  147  A    between atoms: _359  and  _360
REMARK  148  A    between atoms: _369  and  _371
REMARK  149  A    between atoms: _371  and  _372
REMARK  150  A    between atoms: _371  and  _374
REMARK  151  A    between atoms: _374  and  _375
REMARK  152  A    between atoms: _378  and  _380
REMARK  153  A    between atoms: _380  and  _381
REMARK  154  A    between atoms: _380  and  _383
REMARK  155  A    between atoms: _383  and  _384
REMARK  156  A    between atoms: _387  and  _389
REMARK  157  A    between atoms: _389  and  _390
REMARK  158  A    between atoms: _389  and  _392
REMARK  159  A    between atoms: _392  and  _393
REMARK  160  A    between atoms: _398  and  _399
REMARK  161  A    between atoms: _401  and  _403
REMARK  162  A    between atoms: _403  and  _404
REMARK  163  A    between atoms: _403  and  _406
REMARK  164  A    between atoms: _406  and  _407
REMARK  165  A    between atoms: _412  and  _413
REMARK  166  A    between atoms: _415  and  _417
REMARK  167  A    between atoms: _417  and  _418
REMARK  168  A    between atoms: _417  and  _420
REMARK  169  A    between atoms: _420  and  _421
REMARK  170  A    between atoms: _424  and  _426
REMARK  171  A    between atoms: _426  and  _427
REMARK  172  A    between atoms: _426  and  _429
REMARK  173  A    between atoms: _429  and  _430
REMARK  174  A    between atoms: _430  and  _431
REMARK  175  A    between atoms: _436  and  _438
REMARK  176  A    between atoms: _438  and  _439
REMARK  177  A    between atoms: _438  and  _441
REMARK  178  A    between atoms: _444  and  _446
REMARK  179  A    between atoms: _446  and  _447
REMARK  180  A    between atoms: _446  and  _449
REMARK  181  A    between atoms: _449  and  _450
REMARK  182  A    between atoms: _453  and  _455
REMARK  183  A    between atoms: _455  and  _456
REMARK  184  A    between atoms: _455  and  _458
REMARK  185  A    between atoms: _458  and  _459
REMARK  186  A    between atoms: _461  and  _463
REMARK  187  A    between atoms: _463  and  _464
REMARK  188  A    between atoms: _466  and  _468
REMARK  189  A    between atoms: _468  and  _469
REMARK  190  A    between atoms: _468  and  _471
REMARK  191  A    between atoms: _471  and  _472
REMARK  192  A    between atoms: _472  and  _774
REMARK  193  A    between atoms: _473  and  _475
REMARK  194  A    between atoms: _475  and  _476
REMARK  195  A    between atoms: _475  and  _478
REMARK  196  A    between atoms: _478  and  _479
REMARK  197  A    between atoms: _484  and  _485
REMARK  198  A    between atoms: _487  and  _489
REMARK  199  A    between atoms: _489  and  _490
REMARK  200  A    between atoms: _489  and  _492
REMARK  201  A    between atoms: _492  and  _493
REMARK  202  A    between atoms: _493  and  _494
REMARK  203  A    between atoms: _499  and  _501
REMARK  204  A    between atoms: _501  and  _502
REMARK  205  A    between atoms: _501  and  _504
REMARK  206  A    between atoms: _504  and  _505
REMARK  207  A    between atoms: _505  and  _506
REMARK  208  A    between atoms: _511  and  _513
REMARK  209  A    between atoms: _513  and  _514
REMARK  210  A    between atoms: _513  and  _516
REMARK  211  A    between atoms: _516  and  _517
REMARK  212  A    between atoms: _522  and  _523
REMARK  213  A    between atoms: _525  and  _527
REMARK  214  A    between atoms: _527  and  _528
REMARK  215  A    between atoms: _531  and  _533
REMARK  216  A    between atoms: _533  and  _534
REMARK  217  A    between atoms: _533  and  _536
REMARK  218  A    between atoms: _536  and  _537
REMARK  219  A    between atoms: _542  and  _543
REMARK  220  A    between atoms: _545  and  _547
REMARK  221  A    between atoms: _547  and  _548
REMARK  222  A    between atoms: _547  and  _550
REMARK  223  A    between atoms: _550  and  _551
REMARK  224  A    between atoms: _556  and  _557
REMARK  225  A    between atoms: _559  and  _561
REMARK  226  A    between atoms: _561  and  _562
REMARK  227  A    between atoms: _561  and  _564
REMARK  228  A    between atoms: _564  and  _565
REMARK  229  A    between atoms: _568  and  _570
REMARK  230  A    between atoms: _570  and  _571
REMARK  231  A    between atoms: _574  and  _576
REMARK  232  A    between atoms: _576  and  _577
REMARK  233  A    between atoms: _580  and  _582
REMARK  234  A    between atoms: _582  and  _583
REMARK  235  A    between atoms: _582  and  _585
REMARK  236  A    between atoms: _585  and  _586
REMARK  237  A    between atoms: _589  and  _591
REMARK  238  A    between atoms: _591  and  _592
REMARK  239  A    between atoms: _591  and  _594
REMARK  240  A    between atoms: _594  and  _595
REMARK  241  A    between atoms: _598  and  _600
REMARK  242  A    between atoms: _600  and  _601
REMARK  243  A    between atoms: _600  and  _603
REMARK  244  A    between atoms: _603  and  _604
REMARK  245  A    between atoms: _607  and  _609
REMARK  246  A    between atoms: _609  and  _610
REMARK  247  A    between atoms: _609  and  _612
REMARK  248  A    between atoms: _612  and  _613
REMARK  249  A    between atoms: _613  and  _614
REMARK  250  A    between atoms: _614  and  _615
REMARK  251  A    between atoms: _615  and  _616
REMARK  252  A    between atoms: _620  and  _622
REMARK  253  A    between atoms: _622  and  _623
REMARK  254  A    between atoms: _622  and  _625
REMARK  255  A    between atoms: _625  and  _626
REMARK  256  A    between atoms: _631  and  _633
REMARK  257  A    between atoms: _633  and  _634
REMARK  258  A    between atoms: _633  and  _636
REMARK  259  A    between atoms: _636  and  _637
REMARK  260  A    between atoms: _637  and  _638
REMARK  261  A    between atoms: _638  and  _639
REMARK  262  A    between atoms: _639  and  _640
REMARK  263  A    between atoms: _644  and  _646
REMARK  264  A    between atoms: _646  and  _647
REMARK  265  A    between atoms: _646  and  _649
REMARK  266  A    between atoms: _649  and  _650
REMARK  267  A    between atoms: _660  and  _662
REMARK  268  A    between atoms: _662  and  _663
REMARK  269  A    between atoms: _666  and  _668
REMARK  270  A    between atoms: _668  and  _669
REMARK  271  A    between atoms: _671  and  _673
REMARK  272  A    between atoms: _673  and  _674
REMARK  273  A    between atoms: _673  and  _676
REMARK  274  A    between atoms: _676  and  _677
REMARK  275  A    between atoms: _677  and  _678
REMARK  276  A    between atoms: _681  and  _683
REMARK  277  A    between atoms: _683  and  _684
REMARK  278  A    between atoms: _687  and  _689
REMARK  279  A    between atoms: _689  and  _690
REMARK  280  A    between atoms: _689  and  _692
REMARK  281  A    between atoms: _692  and  _693
REMARK  282  A    between atoms: _693  and  _694
REMARK  283  A    between atoms: _694  and  _695
REMARK  284  A    between atoms: _704  and  _706
REMARK  285  A    between atoms: _706  and  _707
REMARK  286  A    between atoms: _706  and  _709
REMARK  287  A    between atoms: _709  and  _710
REMARK  288  A    between atoms: _713  and  _715
REMARK  289  A    between atoms: _715  and  _716
REMARK  290  A    between atoms: _715  and  _718
REMARK  291  A    between atoms: _718  and  _719
REMARK  292  A    between atoms: _719  and  _720
REMARK  293  A    between atoms: _720  and  _721
REMARK  294  A    between atoms: _730  and  _732
REMARK  295  A    between atoms: _732  and  _733
REMARK  296  A    between atoms: _736  and  _738
REMARK  297  A    between atoms: _738  and  _739
REMARK  298  A    between atoms: _738  and  _741
REMARK  299  A    between atoms: _741  and  _742
REMARK  300  A    between atoms: _747  and  _748
REMARK  301  A    between atoms: _750  and  _752
REMARK  302  A    between atoms: _752  and  _753
REMARK  303  A    between atoms: _752  and  _755
REMARK  304  A    between atoms: _755  and  _756
REMARK  305  A    between atoms: _759  and  _761
REMARK  306  A    between atoms: _761  and  _762
REMARK  307  A    between atoms: _761  and  _764
REMARK  308  A    between atoms: _764  and  _765
REMARK  309  A    between atoms: _768  and  _770
REMARK  310  A    between atoms: _770  and  _771
REMARK  311  A    between atoms: _770  and  _773
REMARK  312  A    between atoms: _773  and  _774
REMARK  313  A    between atoms: _775  and  _777
REMARK  314  A    between atoms: _777  and  _778
REMARK  315  A    between atoms: _777  and  _780
REMARK  316  A    between atoms: _783  and  _785
REMARK  317  A    between atoms: _785  and  _786
REMARK  318  A    between atoms: _785  and  _788
REMARK  319  A    between atoms: _788  and  _789
REMARK  320  A    between atoms: _789  and  _790
REMARK  321  A    between atoms: _793  and  _795
REMARK  322  A    between atoms: _795  and  _796
REMARK  323  A    between atoms: _795  and  _798
REMARK  324  A    between atoms: _798  and  _799
REMARK  325  A    between atoms: _809  and  _811
REMARK  326  A    between atoms: _811  and  _812
REMARK  327  A    between atoms: _811  and  _814
REMARK  328  A    between atoms: _814  and  _815
REMARK  329  A    between atoms: _818  and  _820
REMARK  330  A    between atoms: _820  and  _821
REMARK  331  A    between atoms: _820  and  _823
REMARK  332  A    between atoms: _823  and  _824
REMARK  333  A    between atoms: _829  and  _830
REMARK                            x       y       z     vdW  Elec       q    Type
REMARK                         _______ _______ _______ _____ _____    ______ ____
ROOT
ATOM      1  O   HOH     1     -19.930  -2.276  35.266  0.00  0.00    +0.000 OA
ENDROOT
TORSDOF 0
REMARK  Name = ../refined-set-2016/3p9l/3p9l_pocket.pdb
REMARK  333 active torsions:
REMARK  status: ('A' for Active; 'I' for Inactive)
REMARK    1  A    between atoms: _1  and  _3
REMARK    2  A    between atoms: _3  and  _4
REMARK    3  A    between atoms: _3  and  _6
REMARK    4  A    between atoms: _6  and  _7
REMARK    5  A    between atoms: _10  and  _12
REMARK    6  A    between atoms: _12  and  _13
REMARK    7  A    between atoms: _12  and  _15
REMARK    8  A    between atoms: _15  and  _16
REMARK    9  A    between atoms: _16  and  _17
REMARK   10  A    between atoms: _17  and  _18
REMARK   11  A    between atoms: _27  and  _29
REMARK   12  A    between atoms: _29  and  _30
REMARK   13  A    between atoms: _29  and  _32
REMARK   14  A    between atoms: _32  and  _33
REMARK   15  A    between atoms: _38  and  _39
REMARK   16  A    between atoms: _41  and  _43
REMARK   17  A    between atoms: _43  and  _44
REMARK   18  A    between atoms: _43  and  _46
REMARK   19  A    between atoms: _46  and  _47
REMARK   20  A    between atoms: _53  and  _55
REMARK   21  A    between atoms: _55  and  _56
REMARK   22  A    between atoms: _55  and  _58
REMARK   23  A    between atoms: _61  and  _63
REMARK   24  A    between atoms: _63  and  _64
REMARK   25  A    between atoms: _63  and  _66
REMARK   26  A    between atoms: _66  and  _67
REMARK   27  A    between atoms: _70  and  _72
REMARK   28  A    between atoms: _72  and  _73
REMARK   29  A    between atoms: _72  and  _75
REMARK   30  A    between atoms: _75  and  _76
REMARK   31  A    between atoms: _81  and  _82
REMARK   32  A    between atoms: _84  and  _86
REMARK   33  A    between atoms: _86  and  _87
REMARK   34  A    between atoms: _86  and  _89
REMARK   35  A    between atoms: _89  and  _90
REMARK   36  A    between atoms: _90  and  _91
REMARK   37  A    between atoms: _93  and  _95
REMARK   38  A    between atoms: _95  and  _96
REMARK   39  A    between atoms: _95  and  _98
REMARK   40  A    between atoms: _98  and  _99
REMARK   41  A    between atoms: _99  and  _100
REMARK   42  A    between atoms: _103  and  _105
REMARK   43  A    between atoms: _105  and  _106
REMARK   44  A    between atoms: _105  and  _108
REMARK   45  A    between atoms: _111  and  _113
REMARK   46  A    between atoms: _113  and  _114
REMARK   47  A    between atoms: _116  and  _118
REMARK   48  A    between atoms: _118  and  _119
REMARK   49  A    between atoms: _118  and  _121
REMARK   50  A    between atoms: _124  and  _126
REMARK   51  A    between atoms: _126  and  _127
REMARK   52  A    between atoms: _126  and  _129
REMARK   53  A    between atoms: _129  and  _130
REMARK   54  A    between atoms: _136  and  _138
REMARK   55  A    between atoms: _138  and  _139
REMARK   56  A    between atoms: _138  and  _141
REMARK   57  A    between atoms: _144  and  _146
REMARK   58  A    between atoms: _146  and  _147
REMARK   59  A    between atoms: _146  and  _149
REMARK   60  A    between atoms: _149  and  _150
REMARK   61  A    between atoms: _156  and  _158
REMARK   62  A    between atoms: _158  and  _159
REMARK   63  A    between atoms: _158  and  _161
REMARK   64  A    between atoms: _161  and  _162
REMARK   65  A    between atoms: _167  and  _168
REMARK   66  A    between atoms: _170  and  _172
REMARK   67  A    between atoms: _172  and  _173
REMARK   68  A    between atoms: _172  and  _175
REMARK   69  A    between atoms: _175  and  _176
REMARK   70  A    between atoms: _176  and  _177
REMARK   71  A    between atoms: _179  and  _181
REMARK   72  A    between atoms: _181  and  _182
REMARK   73  A    between atoms: _181  and  _184
REMARK   74  A    between atoms: _184  and  _185
REMARK   75  A    between atoms: _190  and  _191
REMARK   76  A    between atoms: _193  and  _195
REMARK   77  A    between atoms: _195  and  _196
REMARK   78  A    between atoms: _195  and  _198
REMARK   79  A    between atoms: _198  and  _199
REMARK   80  A    between atoms: _199  and  _200
REMARK   81  A    between atoms: _200  and  _201
REMARK   82  A    between atoms: _210  and  _212
REMARK   83  A    between atoms: _212  and  _213
REMARK   84  A    between atoms: _212  and  _215
REMARK   85  A    between atoms: _215  and  _216
REMARK   86  A    between atoms: _216  and  _217
REMARK   87  A    between atoms: _220  and  _222
REMARK   88  A    between atoms: _222  and  _223
REMARK   89  A    between atoms: _222  and  _225
REMARK   90  A    between atoms: _225  and  _226
REMARK   91  A    between atoms: _226  and  _227
REMARK   92  A    between atoms: _232  and  _234
REMARK   93  A    between atoms: _234  and  _235
REMARK   94  A    between atoms: _234  and  _237
REMARK   95  A    between atoms: _237  and  _238
REMARK   96  A    between atoms: _238  and  _239
REMARK   97  A    between atoms: _239  and  _240
REMARK   98  A    between atoms: _240  and  _241
REMARK   99  A    between atoms: _245  and  _247
REMARK  100  A    between atoms: _247  and  _248
REMARK  101  A    between atoms: _251  and  _253
REMARK  102  A    between atoms: _253  and  _254
REMARK  103  A    between atoms: _256  and  _258
REMARK  104  A    between atoms: _258  and  _259
REMARK  105  A    between atoms: _258  and  _261
REMARK  106  A    between atoms: _261  and  _262
REMARK  107  A    between atoms: _267  and  _269
REMARK  108  A    between atoms: _269  and  _270
REMARK  109  A    between atoms: _269  and  _272
REMARK  110  A    between atoms: _272  and  _273
REMARK  111  A    between atoms: _273  and  _274
REMARK  112  A    between atoms: _277  and  _279
REMARK  113  A    between atoms: _279  and  _280
REMARK  114  A    between atoms: _279  and  _282
REMARK  115  A    between atoms: _282  and  _283
REMARK  116  A    between atoms: _283  and  _284
REMARK  117  A    between atoms: _289  and  _291
REMARK  118  A    between atoms: _291  and  _292
REMARK  119  A    between atoms: _291  and  _294
REMARK  120  A    between atoms: _294  and  _295
REMARK  121  A    between atoms: _297  and  _299
REMARK  122  A    between atoms: _299  and  _300
REMARK  123  A    between atoms: _299  and  _302
REMARK  124  A    between atoms: _302  and  _303
REMARK  125  A    between atoms: _309  and  _311
REMARK  126  A    between atoms: _311  and  _312
REMARK  127  A    between atoms: _311  and  _314
REMARK  128  A    between atoms: _314  and  _315
REMARK  129  A    between atoms: _315  and  _316
REMARK  130  A    between atoms: _316  and  _317
REMARK  131  A    between atoms: _326  and  _328
REMARK  132  A    between atoms: _328  and  _329
REMARK  133  A    between atoms: _328  and  _331
REMARK  134  A    between atoms: _334  and  _336
REMARK  135  A    between atoms: _336  and  _337
REMARK  136  A    between atoms: _336  and  _339
REMARK  137  A    between atoms: _339  and  _340
REMARK  138  A    between atoms: _343  and  _345
REMARK  139  A    between atoms: _345  and  _346
REMARK  140  A    between atoms: _345  and  _348
REMARK  141  A    between atoms: _348  and  _349
REMARK  142  A    between atoms: _352  and  _354
REMARK  143  A    between atoms: _354  and  _355
REMARK  144  A    between atoms: _354  and  _357
REMARK  145  A    between atoms: _357  and  _358
REMARK  146  A    between atoms: _358  and  _359
REMARK  147  A    between atoms: _359  and  _360
REMARK  148  A    between atoms: _369  and  _371
REMARK  149  A    between atoms: _371  and  _372
REMARK  150  A    between atoms: _371  and  _374
REMARK  151  A    between atoms: _374  and  _375
REMARK  152  A    between atoms: _378  and  _380
REMARK  153  A    between atoms: _380  and  _381
REMARK  154  A    between atoms: _380  and  _383
REMARK  155  A    between atoms: _383  and  _384
REMARK  156  A    between atoms: _387  and  _389
REMARK  157  A    between atoms: _389  and  _390
REMARK  158  A    between atoms: _389  and  _392
REMARK  159  A    between atoms: _392  and  _393
REMARK  160  A    between atoms: _398  and  _399
REMARK  161  A    between atoms: _401  and  _403
REMARK  162  A    between atoms: _403  and  _404
REMARK  163  A    between atoms: _403  and  _406
REMARK  164  A    between atoms: _406  and  _407
REMARK  165  A    between atoms: _412  and  _413
REMARK  166  A    between atoms: _415  and  _417
REMARK  167  A    between atoms: _417  and  _418
REMARK  168  A    between atoms: _417  and  _420
REMARK  169  A    between atoms: _420  and  _421
REMARK  170  A    between atoms: _424  and  _426
REMARK  171  A    between atoms: _426  and  _427
REMARK  172  A    between atoms: _426  and  _429
REMARK  173  A    between atoms: _429  and  _430
REMARK  174  A    between atoms: _430  and  _431
REMARK  175  A    between atoms: _436  and  _438
REMARK  176  A    between atoms: _438  and  _439
REMARK  177  A    between atoms: _438  and  _441
REMARK  178  A    between atoms: _444  and  _446
REMARK  179  A    between atoms: _446  and  _447
REMARK  180  A    between atoms: _446  and  _449
REMARK  181  A    between atoms: _449  and  _450
REMARK  182  A    between atoms: _453  and  _455
REMARK  183  A    between atoms: _455  and  _456
REMARK  184  A    between atoms: _455  and  _458
REMARK  185  A    between atoms: _458  and  _459
REMARK  186  A    between atoms: _461  and  _463
REMARK  187  A    between atoms: _463  and  _464
REMARK  188  A    between atoms: _466  and  _468
REMARK  189  A    between atoms: _468  and  _469
REMARK  190  A    between atoms: _468  and  _471
REMARK  191  A    between atoms: _471  and  _472
REMARK  192  A    between atoms: _472  and  _774
REMARK  193  A    between atoms: _473  and  _475
REMARK  194  A    between atoms: _475  and  _476
REMARK  195  A    between atoms: _475  and  _478
REMARK  196  A    between atoms: _478  and  _479
REMARK  197  A    between atoms: _484  and  _485
REMARK  198  A    between atoms: _487  and  _489
REMARK  199  A    between atoms: _489  and  _490
REMARK  200  A    between atoms: _489  and  _492
REMARK  201  A    between atoms: _492  and  _493
REMARK  202  A    between atoms: _493  and  _494
REMARK  203  A    between atoms: _499  and  _501
REMARK  204  A    between atoms: _501  and  _502
REMARK  205  A    between atoms: _501  and  _504
REMARK  206  A    between atoms: _504  and  _505
REMARK  207  A    between atoms: _505  and  _506
REMARK  208  A    between atoms: _511  and  _513
REMARK  209  A    between atoms: _513  and  _514
REMARK  210  A    between atoms: _513  and  _516
REMARK  211  A    between atoms: _516  and  _517
REMARK  212  A    between atoms: _522  and  _523
REMARK  213  A    between atoms: _525  and  _527
REMARK  214  A    between atoms: _527  and  _528
REMARK  215  A    between atoms: _531  and  _533
REMARK  216  A    between atoms: _533  and  _534
REMARK  217  A    between atoms: _533  and  _536
REMARK  218  A    between atoms: _536  and  _537
REMARK  219  A    between atoms: _542  and  _543
REMARK  220  A    between atoms: _545  and  _547
REMARK  221  A    between atoms: _547  and  _548
REMARK  222  A    between atoms: _547  and  _550
REMARK  223  A    between atoms: _550  and  _551
REMARK  224  A    between atoms: _556  and  _557
REMARK  225  A    between atoms: _559  and  _561
REMARK  226  A    between atoms: _561  and  _562
REMARK  227  A    between atoms: _561  and  _564
REMARK  228  A    between atoms: _564  and  _565
REMARK  229  A    between atoms: _568  and  _570
REMARK  230  A    between atoms: _570  and  _571
REMARK  231  A    between atoms: _574  and  _576
REMARK  232  A    between atoms: _576  and  _577
REMARK  233  A    between atoms: _580  and  _582
REMARK  234  A    between atoms: _582  and  _583
REMARK  235  A    between atoms: _582  and  _585
REMARK  236  A    between atoms: _585  and  _586
REMARK  237  A    between atoms: _589  and  _591
REMARK  238  A    between atoms: _591  and  _592
REMARK  239  A    between atoms: _591  and  _594
REMARK  240  A    between atoms: _594  and  _595
REMARK  241  A    between atoms: _598  and  _600
REMARK  242  A    between atoms: _600  and  _601
REMARK  243  A    between atoms: _600  and  _603
REMARK  244  A    between atoms: _603  and  _604
REMARK  245  A    between atoms: _607  and  _609
REMARK  246  A    between atoms: _609  and  _610
REMARK  247  A    between atoms: _609  and  _612
REMARK  248  A    between atoms: _612  and  _613
REMARK  249  A    between atoms: _613  and  _614
REMARK  250  A    between atoms: _614  and  _615
REMARK  251  A    between atoms: _615  and  _616
REMARK  252  A    between atoms: _620  and  _622
REMARK  253  A    between atoms: _622  and  _623
REMARK  254  A    between atoms: _622  and  _625
REMARK  255  A    between atoms: _625  and  _626
REMARK  256  A    between atoms: _631  and  _633
REMARK  257  A    between atoms: _633  and  _634
REMARK  258  A    between atoms: _633  and  _636
REMARK  259  A    between atoms: _636  and  _637
REMARK  260  A    between atoms: _637  and  _638
REMARK  261  A    between atoms: _638  and  _639
REMARK  262  A    between atoms: _639  and  _640
REMARK  263  A    between atoms: _644  and  _646
REMARK  264  A    between atoms: _646  and  _647
REMARK  265  A    between atoms: _646  and  _649
REMARK  266  A    between atoms: _649  and  _650
REMARK  267  A    between atoms: _660  and  _662
REMARK  268  A    between atoms: _662  and  _663
REMARK  269  A    between atoms: _666  and  _668
REMARK  270  A    between atoms: _668  and  _669
REMARK  271  A    between atoms: _671  and  _673
REMARK  272  A    between atoms: _673  and  _674
REMARK  273  A    between atoms: _673  and  _676
REMARK  274  A    between atoms: _676  and  _677
REMARK  275  A    between atoms: _677  and  _678
REMARK  276  A    between atoms: _681  and  _683
REMARK  277  A    between atoms: _683  and  _684
REMARK  278  A    between atoms: _687  and  _689
REMARK  279  A    between atoms: _689  and  _690
REMARK  280  A    between atoms: _689  and  _692
REMARK  281  A    between atoms: _692  and  _693
REMARK  282  A    between atoms: _693  and  _694
REMARK  283  A    between atoms: _694  and  _695
REMARK  284  A    between atoms: _704  and  _706
REMARK  285  A    between atoms: _706  and  _707
REMARK  286  A    between atoms: _706  and  _709
REMARK  287  A    between atoms: _709  and  _710
REMARK  288  A    between atoms: _713  and  _715
REMARK  289  A    between atoms: _715  and  _716
REMARK  290  A    between atoms: _715  and  _718
REMARK  291  A    between atoms: _718  and  _719
REMARK  292  A    between atoms: _719  and  _720
REMARK  293  A    between atoms: _720  and  _721
REMARK  294  A    between atoms: _730  and  _732
REMARK  295  A    between atoms: _732  and  _733
REMARK  296  A    between atoms: _736  and  _738
REMARK  297  A    between atoms: _738  and  _739
REMARK  298  A    between atoms: _738  and  _741
REMARK  299  A    between atoms: _741  and  _742
REMARK  300  A    between atoms: _747  and  _748
REMARK  301  A    between atoms: _750  and  _752
REMARK  302  A    between atoms: _752  and  _753
REMARK  303  A    between atoms: _752  and  _755
REMARK  304  A    between atoms: _755  and  _756
REMARK  305  A    between atoms: _759  and  _761
REMARK  306  A    between atoms: _761  and  _762
REMARK  307  A    between atoms: _761  and  _764
REMARK  308  A    between atoms: _764  and  _765
REMARK  309  A    between atoms: _768  and  _770
REMARK  310  A    between atoms: _770  and  _771
REMARK  311  A    between atoms: _770  and  _773
REMARK  312  A    between atoms: _773  and  _774
REMARK  313  A    between atoms: _775  and  _777
REMARK  314  A    between atoms: _777  and  _778
REMARK  315  A    between atoms: _777  and  _780
REMARK  316  A    between atoms: _783  and  _785
REMARK  317  A    between atoms: _785  and  _786
REMARK  318  A    between atoms: _785  and  _788
REMARK  319  A    between atoms: _788  and  _789
REMARK  320  A    between atoms: _789  and  _790
REMARK  321  A    between atoms: _793  and  _795
REMARK  322  A    between atoms: _795  and  _796
REMARK  323  A    between atoms: _795  and  _798
REMARK  324  A    between atoms: _798  and  _799
REMARK  325  A    between atoms: _809  and  _811
REMARK  326  A    between atoms: _811  and  _812
REMARK  327  A    between atoms: _811  and  _814
REMARK  328  A    between atoms: _814  and  _815
REMARK  329  A    between atoms: _818  and  _820
REMARK  330  A    between atoms: _820  and  _821
REMARK  331  A    between atoms: _820  and  _823
REMARK  332  A    between atoms: _823  and  _824
REMARK  333  A    between atoms: _829  and  _830
REMARK                            x       y       z     vdW  Elec       q    Type
REMARK                         _______ _______ _______ _____ _____    ______ ____
ROOT
ATOM      1  O   HOH     1     -17.038   5.628  40.804  0.00  0.00    +0.000 OA
ENDROOT
TORSDOF 0
REMARK  Name = ../refined-set-2016/3p9l/3p9l_pocket.pdb
REMARK  333 active torsions:
REMARK  status: ('A' for Active; 'I' for Inactive)
REMARK    1  A    between atoms: _1  and  _3
REMARK    2  A    between atoms: _3  and  _4
REMARK    3  A    between atoms: _3  and  _6
REMARK    4  A    between atoms: _6  and  _7
REMARK    5  A    between atoms: _10  and  _12
REMARK    6  A    between atoms: _12  and  _13
REMARK    7  A    between atoms: _12  and  _15
REMARK    8  A    between atoms: _15  and  _16
REMARK    9  A    between atoms: _16  and  _17
REMARK   10  A    between atoms: _17  and  _18
REMARK   11  A    between atoms: _27  and  _29
REMARK   12  A    between atoms: _29  and  _30
REMARK   13  A    between atoms: _29  and  _32
REMARK   14  A    between atoms: _32  and  _33
REMARK   15  A    between atoms: _38  and  _39
REMARK   16  A    between atoms: _41  and  _43
REMARK   17  A    between atoms: _43  and  _44
REMARK   18  A    between atoms: _43  and  _46
REMARK   19  A    between atoms: _46  and  _47
REMARK   20  A    between atoms: _53  and  _55
REMARK   21  A    between atoms: _55  and  _56
REMARK   22  A    between atoms: _55  and  _58
REMARK   23  A    between atoms: _61  and  _63
REMARK   24  A    between atoms: _63  and  _64
REMARK   25  A    between atoms: _63  and  _66
REMARK   26  A    between atoms: _66  and  _67
REMARK   27  A    between atoms: _70  and  _72
REMARK   28  A    between atoms: _72  and  _73
REMARK   29  A    between atoms: _72  and  _75
REMARK   30  A    between atoms: _75  and  _76
REMARK   31  A    between atoms: _81  and  _82
REMARK   32  A    between atoms: _84  and  _86
REMARK   33  A    between atoms: _86  and  _87
REMARK   34  A    between atoms: _86  and  _89
REMARK   35  A    between atoms: _89  and  _90
REMARK   36  A    between atoms: _90  and  _91
REMARK   37  A    between atoms: _93  and  _95
REMARK   38  A    between atoms: _95  and  _96
REMARK   39  A    between atoms: _95  and  _98
REMARK   40  A    between atoms: _98  and  _99
REMARK   41  A    between atoms: _99  and  _100
REMARK   42  A    between atoms: _103  and  _105
REMARK   43  A    between atoms: _105  and  _106
REMARK   44  A    between atoms: _105  and  _108
REMARK   45  A    between atoms: _111  and  _113
REMARK   46  A    between atoms: _113  and  _114
REMARK   47  A    between atoms: _116  and  _118
REMARK   48  A    between atoms: _118  and  _119
REMARK   49  A    between atoms: _118  and  _121
REMARK   50  A    between atoms: _124  and  _126
REMARK   51  A    between atoms: _126  and  _127
REMARK   52  A    between atoms: _126  and  _129
REMARK   53  A    between atoms: _129  and  _130
REMARK   54  A    between atoms: _136  and  _138
REMARK   55  A    between atoms: _138  and  _139
REMARK   56  A    between atoms: _138  and  _141
REMARK   57  A    between atoms: _144  and  _146
REMARK   58  A    between atoms: _146  and  _147
REMARK   59  A    between atoms: _146  and  _149
REMARK   60  A    between atoms: _149  and  _150
REMARK   61  A    between atoms: _156  and  _158
REMARK   62  A    between atoms: _158  and  _159
REMARK   63  A    between atoms: _158  and  _161
REMARK   64  A    between atoms: _161  and  _162
REMARK   65  A    between atoms: _167  and  _168
REMARK   66  A    between atoms: _170  and  _172
REMARK   67  A    between atoms: _172  and  _173
REMARK   68  A    between atoms: _172  and  _175
REMARK   69  A    between atoms: _175  and  _176
REMARK   70  A    between atoms: _176  and  _177
REMARK   71  A    between atoms: _179  and  _181
REMARK   72  A    between atoms: _181  and  _182
REMARK   73  A    between atoms: _181  and  _184
REMARK   74  A    between atoms: _184  and  _185
REMARK   75  A    between atoms: _190  and  _191
REMARK   76  A    between atoms: _193  and  _195
REMARK   77  A    between atoms: _195  and  _196
REMARK   78  A    between atoms: _195  and  _198
REMARK   79  A    between atoms: _198  and  _199
REMARK   80  A    between atoms: _199  and  _200
REMARK   81  A    between atoms: _200  and  _201
REMARK   82  A    between atoms: _210  and  _212
REMARK   83  A    between atoms: _212  and  _213
REMARK   84  A    between atoms: _212  and  _215
REMARK   85  A    between atoms: _215  and  _216
REMARK   86  A    between atoms: _216  and  _217
REMARK   87  A    between atoms: _220  and  _222
REMARK   88  A    between atoms: _222  and  _223
REMARK   89  A    between atoms: _222  and  _225
REMARK   90  A    between atoms: _225  and  _226
REMARK   91  A    between atoms: _226  and  _227
REMARK   92  A    between atoms: _232  and  _234
REMARK   93  A    between atoms: _234  and  _235
REMARK   94  A    between atoms: _234  and  _237
REMARK   95  A    between atoms: _237  and  _238
REMARK   96  A    between atoms: _238  and  _239
REMARK   97  A    between atoms: _239  and  _240
REMARK   98  A    between atoms: _240  and  _241
REMARK   99  A    between atoms: _245  and  _247
REMARK  100  A    between atoms: _247  and  _248
REMARK  101  A    between atoms: _251  and  _253
REMARK  102  A    between atoms: _253  and  _254
REMARK  103  A    between atoms: _256  and  _258
REMARK  104  A    between atoms: _258  and  _259
REMARK  105  A    between atoms: _258  and  _261
REMARK  106  A    between atoms: _261  and  _262
REMARK  107  A    between atoms: _267  and  _269
REMARK  108  A    between atoms: _269  and  _270
REMARK  109  A    between atoms: _269  and  _272
REMARK  110  A    between atoms: _272  and  _273
REMARK  111  A    between atoms: _273  and  _274
REMARK  112  A    between atoms: _277  and  _279
REMARK  113  A    between atoms: _279  and  _280
REMARK  114  A    between atoms: _279  and  _282
REMARK  115  A    between atoms: _282  and  _283
REMARK  116  A    between atoms: _283  and  _284
REMARK  117  A    between atoms: _289  and  _291
REMARK  118  A    between atoms: _291  and  _292
REMARK  119  A    between atoms: _291  and  _294
REMARK  120  A    between atoms: _294  and  _295
REMARK  121  A    between atoms: _297  and  _299
REMARK  122  A    between atoms: _299  and  _300
REMARK  123  A    between atoms: _299  and  _302
REMARK  124  A    between atoms: _302  and  _303
REMARK  125  A    between atoms: _309  and  _311
REMARK  126  A    between atoms: _311  and  _312
REMARK  127  A    between atoms: _311  and  _314
REMARK  128  A    between atoms: _314  and  _315
REMARK  129  A    between atoms: _315  and  _316
REMARK  130  A    between atoms: _316  and  _317
REMARK  131  A    between atoms: _326  and  _328
REMARK  132  A    between atoms: _328  and  _329
REMARK  133  A    between atoms: _328  and  _331
REMARK  134  A    between atoms: _334  and  _336
REMARK  135  A    between atoms: _336  and  _337
REMARK  136  A    between atoms: _336  and  _339
REMARK  137  A    between atoms: _339  and  _340
REMARK  138  A    between atoms: _343  and  _345
REMARK  139  A    between atoms: _345  and  _346
REMARK  140  A    between atoms: _345  and  _348
REMARK  141  A    between atoms: _348  and  _349
REMARK  142  A    between atoms: _352  and  _354
REMARK  143  A    between atoms: _354  and  _355
REMARK  144  A    between atoms: _354  and  _357
REMARK  145  A    between atoms: _357  and  _358
REMARK  146  A    between atoms: _358  and  _359
REMARK  147  A    between atoms: _359  and  _360
REMARK  148  A    between atoms: _369  and  _371
REMARK  149  A    between atoms: _371  and  _372
REMARK  150  A    between atoms: _371  and  _374
REMARK  151  A    between atoms: _374  and  _375
REMARK  152  A    between atoms: _378  and  _380
REMARK  153  A    between atoms: _380  and  _381
REMARK  154  A    between atoms: _380  and  _383
REMARK  155  A    between atoms: _383  and  _384
REMARK  156  A    between atoms: _387  and  _389
REMARK  157  A    between atoms: _389  and  _390
REMARK  158  A    between atoms: _389  and  _392
REMARK  159  A    between atoms: _392  and  _393
REMARK  160  A    between atoms: _398  and  _399
REMARK  161  A    between atoms: _401  and  _403
REMARK  162  A    between atoms: _403  and  _404
REMARK  163  A    between atoms: _403  and  _406
REMARK  164  A    between atoms: _406  and  _407
REMARK  165  A    between atoms: _412  and  _413
REMARK  166  A    between atoms: _415  and  _417
REMARK  167  A    between atoms: _417  and  _418
REMARK  168  A    between atoms: _417  and  _420
REMARK  169  A    between atoms: _420  and  _421
REMARK  170  A    between atoms: _424  and  _426
REMARK  171  A    between atoms: _426  and  _427
REMARK  172  A    between atoms: _426  and  _429
REMARK  173  A    between atoms: _429  and  _430
REMARK  174  A    between atoms: _430  and  _431
REMARK  175  A    between atoms: _436  and  _438
REMARK  176  A    between atoms: _438  and  _439
REMARK  177  A    between atoms: _438  and  _441
REMARK  178  A    between atoms: _444  and  _446
REMARK  179  A    between atoms: _446  and  _447
REMARK  180  A    between atoms: _446  and  _449
REMARK  181  A    between atoms: _449  and  _450
REMARK  182  A    between atoms: _453  and  _455
REMARK  183  A    between atoms: _455  and  _456
REMARK  184  A    between atoms: _455  and  _458
REMARK  185  A    between atoms: _458  and  _459
REMARK  186  A    between atoms: _461  and  _463
REMARK  187  A    between atoms: _463  and  _464
REMARK  188  A    between atoms: _466  and  _468
REMARK  189  A    between atoms: _468  and  _469
REMARK  190  A    between atoms: _468  and  _471
REMARK  191  A    between atoms: _471  and  _472
REMARK  192  A    between atoms: _472  and  _774
REMARK  193  A    between atoms: _473  and  _475
REMARK  194  A    between atoms: _475  and  _476
REMARK  195  A    between atoms: _475  and  _478
REMARK  196  A    between atoms: _478  and  _479
REMARK  197  A    between atoms: _484  and  _485
REMARK  198  A    between atoms: _487  and  _489
REMARK  199  A    between atoms: _489  and  _490
REMARK  200  A    between atoms: _489  and  _492
REMARK  201  A    between atoms: _492  and  _493
REMARK  202  A    between atoms: _493  and  _494
REMARK  203  A    between atoms: _499  and  _501
REMARK  204  A    between atoms: _501  and  _502
REMARK  205  A    between atoms: _501  and  _504
REMARK  206  A    between atoms: _504  and  _505
REMARK  207  A    between atoms: _505  and  _506
REMARK  208  A    between atoms: _511  and  _513
REMARK  209  A    between atoms: _513  and  _514
REMARK  210  A    between atoms: _513  and  _516
REMARK  211  A    between atoms: _516  and  _517
REMARK  212  A    between atoms: _522  and  _523
REMARK  213  A    between atoms: _525  and  _527
REMARK  214  A    between atoms: _527  and  _528
REMARK  215  A    between atoms: _531  and  _533
REMARK  216  A    between atoms: _533  and  _534
REMARK  217  A    between atoms: _533  and  _536
REMARK  218  A    between atoms: _536  and  _537
REMARK  219  A    between atoms: _542  and  _543
REMARK  220  A    between atoms: _545  and  _547
REMARK  221  A    between atoms: _547  and  _548
REMARK  222  A    between atoms: _547  and  _550
REMARK  223  A    between atoms: _550  and  _551
REMARK  224  A    between atoms: _556  and  _557
REMARK  225  A    between atoms: _559  and  _561
REMARK  226  A    between atoms: _561  and  _562
REMARK  227  A    between atoms: _561  and  _564
REMARK  228  A    between atoms: _564  and  _565
REMARK  229  A    between atoms: _568  and  _570
REMARK  230  A    between atoms: _570  and  _571
REMARK  231  A    between atoms: _574  and  _576
REMARK  232  A    between atoms: _576  and  _577
REMARK  233  A    between atoms: _580  and  _582
REMARK  234  A    between atoms: _582  and  _583
REMARK  235  A    between atoms: _582  and  _585
REMARK  236  A    between atoms: _585  and  _586
REMARK  237  A    between atoms: _589  and  _591
REMARK  238  A    between atoms: _591  and  _592
REMARK  239  A    between atoms: _591  and  _594
REMARK  240  A    between atoms: _594  and  _595
REMARK  241  A    between atoms: _598  and  _600
REMARK  242  A    between atoms: _600  and  _601
REMARK  243  A    between atoms: _600  and  _603
REMARK  244  A    between atoms: _603  and  _604
REMARK  245  A    between atoms: _607  and  _609
REMARK  246  A    between atoms: _609  and  _610
REMARK  247  A    between atoms: _609  and  _612
REMARK  248  A    between atoms: _612  and  _613
REMARK  249  A    between atoms: _613  and  _614
REMARK  250  A    between atoms: _614  and  _615
REMARK  251  A    between atoms: _615  and  _616
REMARK  252  A    between atoms: _620  and  _622
REMARK  253  A    between atoms: _622  and  _623
REMARK  254  A    between atoms: _622  and  _625
REMARK  255  A    between atoms: _625  and  _626
REMARK  256  A    between atoms: _631  and  _633
REMARK  257  A    between atoms: _633  and  _634
REMARK  258  A    between atoms: _633  and  _636
REMARK  259  A    between atoms: _636  and  _637
REMARK  260  A    between atoms: _637  and  _638
REMARK  261  A    between atoms: _638  and  _639
REMARK  262  A    between atoms: _639  and  _640
REMARK  263  A    between atoms: _644  and  _646
REMARK  264  A    between atoms: _646  and  _647
REMARK  265  A    between atoms: _646  and  _649
REMARK  266  A    between atoms: _649  and  _650
REMARK  267  A    between atoms: _660  and  _662
REMARK  268  A    between atoms: _662  and  _663
REMARK  269  A    between atoms: _666  and  _668
REMARK  270  A    between atoms: _668  and  _669
REMARK  271  A    between atoms: _671  and  _673
REMARK  272  A    between atoms: _673  and  _674
REMARK  273  A    between atoms: _673  and  _676
REMARK  274  A    between atoms: _676  and  _677
REMARK  275  A    between atoms: _677  and  _678
REMARK  276  A    between atoms: _681  and  _683
REMARK  277  A    between atoms: _683  and  _684
REMARK  278  A    between atoms: _687  and  _689
REMARK  279  A    between atoms: _689  and  _690
REMARK  280  A    between atoms: _689  and  _692
REMARK  281  A    between atoms: _692  and  _693
REMARK  282  A    between atoms: _693  and  _694
REMARK  283  A    between atoms: _694  and  _695
REMARK  284  A    between atoms: _704  and  _706
REMARK  285  A    between atoms: _706  and  _707
REMARK  286  A    between atoms: _706  and  _709
REMARK  287  A    between atoms: _709  and  _710
REMARK  288  A    between atoms: _713  and  _715
REMARK  289  A    between atoms: _715  and  _716
REMARK  290  A    between atoms: _715  and  _718
REMARK  291  A    between atoms: _718  and  _719
REMARK  292  A    between atoms: _719  and  _720
REMARK  293  A    between atoms: _720  and  _721
REMARK  294  A    between atoms: _730  and  _732
REMARK  295  A    between atoms: _732  and  _733
REMARK  296  A    between atoms: _736  and  _738
REMARK  297  A    between atoms: _738  and  _739
REMARK  298  A    between atoms: _738  and  _741
REMARK  299  A    between atoms: _741  and  _742
REMARK  300  A    between atoms: _747  and  _748
REMARK  301  A    between atoms: _750  and  _752
REMARK  302  A    between atoms: _752  and  _753
REMARK  303  A    between atoms: _752  and  _755
REMARK  304  A    between atoms: _755  and  _756
REMARK  305  A    between atoms: _759  and  _761
REMARK  306  A    between atoms: _761  and  _762
REMARK  307  A    between atoms: _761  and  _764
REMARK  308  A    between atoms: _764  and  _765
REMARK  309  A    between atoms: _768  and  _770
REMARK  310  A    between atoms: _770  and  _771
REMARK  311  A    between atoms: _770  and  _773
REMARK  312  A    between atoms: _773  and  _774
REMARK  313  A    between atoms: _775  and  _777
REMARK  314  A    between atoms: _777  and  _778
REMARK  315  A    between atoms: _777  and  _780
REMARK  316  A    between atoms: _783  and  _785
REMARK  317  A    between atoms: _785  and  _786
REMARK  318  A    between atoms: _785  and  _788
REMARK  319  A    between atoms: _788  and  _789
REMARK  320  A    between atoms: _789  and  _790
REMARK  321  A    between atoms: _793  and  _795
REMARK  322  A    between atoms: _795  and  _796
REMARK  323  A    between atoms: _795  and  _798
REMARK  324  A    between atoms: _798  and  _799
REMARK  325  A    between atoms: _809  and  _811
REMARK  326  A    between atoms: _811  and  _812
REMARK  327  A    between atoms: _811  and  _814
REMARK  328  A    between atoms: _814  and  _815
REMARK  329  A    between atoms: _818  and  _820
REMARK  330  A    between atoms: _820  and  _821
REMARK  331  A    between atoms: _820  and  _823
REMARK  332  A    between atoms: _823  and  _824
REMARK  333  A    between atoms: _829  and  _830
REMARK                            x       y       z     vdW  Elec       q    Type
REMARK                         _______ _______ _______ _____ _____    ______ ____
ROOT
ATOM      1  O   HOH     1     -16.108  12.065  28.370  0.00  0.00    +0.000 OA
ENDROOT
TORSDOF 0
REMARK  Name = ../refined-set-2016/3p9l/3p9l_pocket.pdb
REMARK  333 active torsions:
REMARK  status: ('A' for Active; 'I' for Inactive)
REMARK    1  A    between atoms: _1  and  _3
REMARK    2  A    between atoms: _3  and  _4
REMARK    3  A    between atoms: _3  and  _6
REMARK    4  A    between atoms: _6  and  _7
REMARK    5  A    between atoms: _10  and  _12
REMARK    6  A    between atoms: _12  and  _13
REMARK    7  A    between atoms: _12  and  _15
REMARK    8  A    between atoms: _15  and  _16
REMARK    9  A    between atoms: _16  and  _17
REMARK   10  A    between atoms: _17  and  _18
REMARK   11  A    between atoms: _27  and  _29
REMARK   12  A    between atoms: _29  and  _30
REMARK   13  A    between atoms: _29  and  _32
REMARK   14  A    between atoms: _32  and  _33
REMARK   15  A    between atoms: _38  and  _39
REMARK   16  A    between atoms: _41  and  _43
REMARK   17  A    between atoms: _43  and  _44
REMARK   18  A    between atoms: _43  and  _46
REMARK   19  A    between atoms: _46  and  _47
REMARK   20  A    between atoms: _53  and  _55
REMARK   21  A    between atoms: _55  and  _56
REMARK   22  A    between atoms: _55  and  _58
REMARK   23  A    between atoms: _61  and  _63
REMARK   24  A    between atoms: _63  and  _64
REMARK   25  A    between atoms: _63  and  _66
REMARK   26  A    between atoms: _66  and  _67
REMARK   27  A    between atoms: _70  and  _72
REMARK   28  A    between atoms: _72  and  _73
REMARK   29  A    between atoms: _72  and  _75
REMARK   30  A    between atoms: _75  and  _76
REMARK   31  A    between atoms: _81  and  _82
REMARK   32  A    between atoms: _84  and  _86
REMARK   33  A    between atoms: _86  and  _87
REMARK   34  A    between atoms: _86  and  _89
REMARK   35  A    between atoms: _89  and  _90
REMARK   36  A    between atoms: _90  and  _91
REMARK   37  A    between atoms: _93  and  _95
REMARK   38  A    between atoms: _95  and  _96
REMARK   39  A    between atoms: _95  and  _98
REMARK   40  A    between atoms: _98  and  _99
REMARK   41  A    between atoms: _99  and  _100
REMARK   42  A    between atoms: _103  and  _105
REMARK   43  A    between atoms: _105  and  _106
REMARK   44  A    between atoms: _105  and  _108
REMARK   45  A    between atoms: _111  and  _113
REMARK   46  A    between atoms: _113  and  _114
REMARK   47  A    between atoms: _116  and  _118
REMARK   48  A    between atoms: _118  and  _119
REMARK   49  A    between atoms: _118  and  _121
REMARK   50  A    between atoms: _124  and  _126
REMARK   51  A    between atoms: _126  and  _127
REMARK   52  A    between atoms: _126  and  _129
REMARK   53  A    between atoms: _129  and  _130
REMARK   54  A    between atoms: _136  and  _138
REMARK   55  A    between atoms: _138  and  _139
REMARK   56  A    between atoms: _138  and  _141
REMARK   57  A    between atoms: _144  and  _146
REMARK   58  A    between atoms: _146  and  _147
REMARK   59  A    between atoms: _146  and  _149
REMARK   60  A    between atoms: _149  and  _150
REMARK   61  A    between atoms: _156  and  _158
REMARK   62  A    between atoms: _158  and  _159
REMARK   63  A    between atoms: _158  and  _161
REMARK   64  A    between atoms: _161  and  _162
REMARK   65  A    between atoms: _167  and  _168
REMARK   66  A    between atoms: _170  and  _172
REMARK   67  A    between atoms: _172  and  _173
REMARK   68  A    between atoms: _172  and  _175
REMARK   69  A    between atoms: _175  and  _176
REMARK   70  A    between atoms: _176  and  _177
REMARK   71  A    between atoms: _179  and  _181
REMARK   72  A    between atoms: _181  and  _182
REMARK   73  A    between atoms: _181  and  _184
REMARK   74  A    between atoms: _184  and  _185
REMARK   75  A    between atoms: _190  and  _191
REMARK   76  A    between atoms: _193  and  _195
REMARK   77  A    between atoms: _195  and  _196
REMARK   78  A    between atoms: _195  and  _198
REMARK   79  A    between atoms: _198  and  _199
REMARK   80  A    between atoms: _199  and  _200
REMARK   81  A    between atoms: _200  and  _201
REMARK   82  A    between atoms: _210  and  _212
REMARK   83  A    between atoms: _212  and  _213
REMARK   84  A    between atoms: _212  and  _215
REMARK   85  A    between atoms: _215  and  _216
REMARK   86  A    between atoms: _216  and  _217
REMARK   87  A    between atoms: _220  and  _222
REMARK   88  A    between atoms: _222  and  _223
REMARK   89  A    between atoms: _222  and  _225
REMARK   90  A    between atoms: _225  and  _226
REMARK   91  A    between atoms: _226  and  _227
REMARK   92  A    between atoms: _232  and  _234
REMARK   93  A    between atoms: _234  and  _235
REMARK   94  A    between atoms: _234  and  _237
REMARK   95  A    between atoms: _237  and  _238
REMARK   96  A    between atoms: _238  and  _239
REMARK   97  A    between atoms: _239  and  _240
REMARK   98  A    between atoms: _240  and  _241
REMARK   99  A    between atoms: _245  and  _247
REMARK  100  A    between atoms: _247  and  _248
REMARK  101  A    between atoms: _251  and  _253
REMARK  102  A    between atoms: _253  and  _254
REMARK  103  A    between atoms: _256  and  _258
REMARK  104  A    between atoms: _258  and  _259
REMARK  105  A    between atoms: _258  and  _261
REMARK  106  A    between atoms: _261  and  _262
REMARK  107  A    between atoms: _267  and  _269
REMARK  108  A    between atoms: _269  and  _270
REMARK  109  A    between atoms: _269  and  _272
REMARK  110  A    between atoms: _272  and  _273
REMARK  111  A    between atoms: _273  and  _274
REMARK  112  A    between atoms: _277  and  _279
REMARK  113  A    between atoms: _279  and  _280
REMARK  114  A    between atoms: _279  and  _282
REMARK  115  A    between atoms: _282  and  _283
REMARK  116  A    between atoms: _283  and  _284
REMARK  117  A    between atoms: _289  and  _291
REMARK  118  A    between atoms: _291  and  _292
REMARK  119  A    between atoms: _291  and  _294
REMARK  120  A    between atoms: _294  and  _295
REMARK  121  A    between atoms: _297  and  _299
REMARK  122  A    between atoms: _299  and  _300
REMARK  123  A    between atoms: _299  and  _302
REMARK  124  A    between atoms: _302  and  _303
REMARK  125  A    between atoms: _309  and  _311
REMARK  126  A    between atoms: _311  and  _312
REMARK  127  A    between atoms: _311  and  _314
REMARK  128  A    between atoms: _314  and  _315
REMARK  129  A    between atoms: _315  and  _316
REMARK  130  A    between atoms: _316  and  _317
REMARK  131  A    between atoms: _326  and  _328
REMARK  132  A    between atoms: _328  and  _329
REMARK  133  A    between atoms: _328  and  _331
REMARK  134  A    between atoms: _334  and  _336
REMARK  135  A    between atoms: _336  and  _337
REMARK  136  A    between atoms: _336  and  _339
REMARK  137  A    between atoms: _339  and  _340
REMARK  138  A    between atoms: _343  and  _345
REMARK  139  A    between atoms: _345  and  _346
REMARK  140  A    between atoms: _345  and  _348
REMARK  141  A    between atoms: _348  and  _349
REMARK  142  A    between atoms: _352  and  _354
REMARK  143  A    between atoms: _354  and  _355
REMARK  144  A    between atoms: _354  and  _357
REMARK  145  A    between atoms: _357  and  _358
REMARK  146  A    between atoms: _358  and  _359
REMARK  147  A    between atoms: _359  and  _360
REMARK  148  A    between atoms: _369  and  _371
REMARK  149  A    between atoms: _371  and  _372
REMARK  150  A    between atoms: _371  and  _374
REMARK  151  A    between atoms: _374  and  _375
REMARK  152  A    between atoms: _378  and  _380
REMARK  153  A    between atoms: _380  and  _381
REMARK  154  A    between atoms: _380  and  _383
REMARK  155  A    between atoms: _383  and  _384
REMARK  156  A    between atoms: _387  and  _389
REMARK  157  A    between atoms: _389  and  _390
REMARK  158  A    between atoms: _389  and  _392
REMARK  159  A    between atoms: _392  and  _393
REMARK  160  A    between atoms: _398  and  _399
REMARK  161  A    between atoms: _401  and  _403
REMARK  162  A    between atoms: _403  and  _404
REMARK  163  A    between atoms: _403  and  _406
REMARK  164  A    between atoms: _406  and  _407
REMARK  165  A    between atoms: _412  and  _413
REMARK  166  A    between atoms: _415  and  _417
REMARK  167  A    between atoms: _417  and  _418
REMARK  168  A    between atoms: _417  and  _420
REMARK  169  A    between atoms: _420  and  _421
REMARK  170  A    between atoms: _424  and  _426
REMARK  171  A    between atoms: _426  and  _427
REMARK  172  A    between atoms: _426  and  _429
REMARK  173  A    between atoms: _429  and  _430
REMARK  174  A    between atoms: _430  and  _431
REMARK  175  A    between atoms: _436  and  _438
REMARK  176  A    between atoms: _438  and  _439
REMARK  177  A    between atoms: _438  and  _441
REMARK  178  A    between atoms: _444  and  _446
REMARK  179  A    between atoms: _446  and  _447
REMARK  180  A    between atoms: _446  and  _449
REMARK  181  A    between atoms: _449  and  _450
REMARK  182  A    between atoms: _453  and  _455
REMARK  183  A    between atoms: _455  and  _456
REMARK  184  A    between atoms: _455  and  _458
REMARK  185  A    between atoms: _458  and  _459
REMARK  186  A    between atoms: _461  and  _463
REMARK  187  A    between atoms: _463  and  _464
REMARK  188  A    between atoms: _466  and  _468
REMARK  189  A    between atoms: _468  and  _469
REMARK  190  A    between atoms: _468  and  _471
REMARK  191  A    between atoms: _471  and  _472
REMARK  192  A    between atoms: _472  and  _774
REMARK  193  A    between atoms: _473  and  _475
REMARK  194  A    between atoms: _475  and  _476
REMARK  195  A    between atoms: _475  and  _478
REMARK  196  A    between atoms: _478  and  _479
REMARK  197  A    between atoms: _484  and  _485
REMARK  198  A    between atoms: _487  and  _489
REMARK  199  A    between atoms: _489  and  _490
REMARK  200  A    between atoms: _489  and  _492
REMARK  201  A    between atoms: _492  and  _493
REMARK  202  A    between atoms: _493  and  _494
REMARK  203  A    between atoms: _499  and  _501
REMARK  204  A    between atoms: _501  and  _502
REMARK  205  A    between atoms: _501  and  _504
REMARK  206  A    between atoms: _504  and  _505
REMARK  207  A    between atoms: _505  and  _506
REMARK  208  A    between atoms: _511  and  _513
REMARK  209  A    between atoms: _513  and  _514
REMARK  210  A    between atoms: _513  and  _516
REMARK  211  A    between atoms: _516  and  _517
REMARK  212  A    between atoms: _522  and  _523
REMARK  213  A    between atoms: _525  and  _527
REMARK  214  A    between atoms: _527  and  _528
REMARK  215  A    between atoms: _531  and  _533
REMARK  216  A    between atoms: _533  and  _534
REMARK  217  A    between atoms: _533  and  _536
REMARK  218  A    between atoms: _536  and  _537
REMARK  219  A    between atoms: _542  and  _543
REMARK  220  A    between atoms: _545  and  _547
REMARK  221  A    between atoms: _547  and  _548
REMARK  222  A    between atoms: _547  and  _550
REMARK  223  A    between atoms: _550  and  _551
REMARK  224  A    between atoms: _556  and  _557
REMARK  225  A    between atoms: _559  and  _561
REMARK  226  A    between atoms: _561  and  _562
REMARK  227  A    between atoms: _561  and  _564
REMARK  228  A    between atoms: _564  and  _565
REMARK  229  A    between atoms: _568  and  _570
REMARK  230  A    between atoms: _570  and  _571
REMARK  231  A    between atoms: _574  and  _576
REMARK  232  A    between atoms: _576  and  _577
REMARK  233  A    between atoms: _580  and  _582
REMARK  234  A    between atoms: _582  and  _583
REMARK  235  A    between atoms: _582  and  _585
REMARK  236  A    between atoms: _585  and  _586
REMARK  237  A    between atoms: _589  and  _591
REMARK  238  A    between atoms: _591  and  _592
REMARK  239  A    between atoms: _591  and  _594
REMARK  240  A    between atoms: _594  and  _595
REMARK  241  A    between atoms: _598  and  _600
REMARK  242  A    between atoms: _600  and  _601
REMARK  243  A    between atoms: _600  and  _603
REMARK  244  A    between atoms: _603  and  _604
REMARK  245  A    between atoms: _607  and  _609
REMARK  246  A    between atoms: _609  and  _610
REMARK  247  A    between atoms: _609  and  _612
REMARK  248  A    between atoms: _612  and  _613
REMARK  249  A    between atoms: _613  and  _614
REMARK  250  A    between atoms: _614  and  _615
REMARK  251  A    between atoms: _615  and  _616
REMARK  252  A    between atoms: _620  and  _622
REMARK  253  A    between atoms: _622  and  _623
REMARK  254  A    between atoms: _622  and  _625
REMARK  255  A    between atoms: _625  and  _626
REMARK  256  A    between atoms: _631  and  _633
REMARK  257  A    between atoms: _633  and  _634
REMARK  258  A    between atoms: _633  and  _636
REMARK  259  A    between atoms: _636  and  _637
REMARK  260  A    between atoms: _637  and  _638
REMARK  261  A    between atoms: _638  and  _639
REMARK  262  A    between atoms: _639  and  _640
REMARK  263  A    between atoms: _644  and  _646
REMARK  264  A    between atoms: _646  and  _647
REMARK  265  A    between atoms: _646  and  _649
REMARK  266  A    between atoms: _649  and  _650
REMARK  267  A    between atoms: _660  and  _662
REMARK  268  A    between atoms: _662  and  _663
REMARK  269  A    between atoms: _666  and  _668
REMARK  270  A    between atoms: _668  and  _669
REMARK  271  A    between atoms: _671  and  _673
REMARK  272  A    between atoms: _673  and  _674
REMARK  273  A    between atoms: _673  and  _676
REMARK  274  A    between atoms: _676  and  _677
REMARK  275  A    between atoms: _677  and  _678
REMARK  276  A    between atoms: _681  and  _683
REMARK  277  A    between atoms: _683  and  _684
REMARK  278  A    between atoms: _687  and  _689
REMARK  279  A    between atoms: _689  and  _690
REMARK  280  A    between atoms: _689  and  _692
REMARK  281  A    between atoms: _692  and  _693
REMARK  282  A    between atoms: _693  and  _694
REMARK  283  A    between atoms: _694  and  _695
REMARK  284  A    between atoms: _704  and  _706
REMARK  285  A    between atoms: _706  and  _707
REMARK  286  A    between atoms: _706  and  _709
REMARK  287  A    between atoms: _709  and  _710
REMARK  288  A    between atoms: _713  and  _715
REMARK  289  A    between atoms: _715  and  _716
REMARK  290  A    between atoms: _715  and  _718
REMARK  291  A    between atoms: _718  and  _719
REMARK  292  A    between atoms: _719  and  _720
REMARK  293  A    between atoms: _720  and  _721
REMARK  294  A    between atoms: _730  and  _732
REMARK  295  A    between atoms: _732  and  _733
REMARK  296  A    between atoms: _736  and  _738
REMARK  297  A    between atoms: _738  and  _739
REMARK  298  A    between atoms: _738  and  _741
REMARK  299  A    between atoms: _741  and  _742
REMARK  300  A    between atoms: _747  and  _748
REMARK  301  A    between atoms: _750  and  _752
REMARK  302  A    between atoms: _752  and  _753
REMARK  303  A    between atoms: _752  and  _755
REMARK  304  A    between atoms: _755  and  _756
REMARK  305  A    between atoms: _759  and  _761
REMARK  306  A    between atoms: _761  and  _762
REMARK  307  A    between atoms: _761  and  _764
REMARK  308  A    between atoms: _764  and  _765
REMARK  309  A    between atoms: _768  and  _770
REMARK  310  A    between atoms: _770  and  _771
REMARK  311  A    between atoms: _770  and  _773
REMARK  312  A    between atoms: _773  and  _774
REMARK  313  A    between atoms: _775  and  _777
REMARK  314  A    between atoms: _777  and  _778
REMARK  315  A    between atoms: _777  and  _780
REMARK  316  A    between atoms: _783  and  _785
REMARK  317  A    between atoms: _785  and  _786
REMARK  318  A    between atoms: _785  and  _788
REMARK  319  A    between atoms: _788  and  _789
REMARK  320  A    between atoms: _789  and  _790
REMARK  321  A    between atoms: _793  and  _795
REMARK  322  A    between atoms: _795  and  _796
REMARK  323  A    between atoms: _795  and  _798
REMARK  324  A    between atoms: _798  and  _799
REMARK  325  A    between atoms: _809  and  _811
REMARK  326  A    between atoms: _811  and  _812
REMARK  327  A    between atoms: _811  and  _814
REMARK  328  A    between atoms: _814  and  _815
REMARK  329  A    between atoms: _818  and  _820
REMARK  330  A    between atoms: _820  and  _821
REMARK  331  A    between atoms: _820  and  _823
REMARK  332  A    between atoms: _823  and  _824
REMARK  333  A    between atoms: _829  and  _830
REMARK                            x       y       z     vdW  Elec       q    Type
REMARK                         _______ _______ _______ _____ _____    ______ ____
ROOT
ATOM      1  O   HOH     1     -23.064   1.746  32.246  0.00  0.00    +0.000 OA
ENDROOT
TORSDOF 0
REMARK  Name = ../refined-set-2016/3p9l/3p9l_pocket.pdb
REMARK  333 active torsions:
REMARK  status: ('A' for Active; 'I' for Inactive)
REMARK    1  A    between atoms: _1  and  _3
REMARK    2  A    between atoms: _3  and  _4
REMARK    3  A    between atoms: _3  and  _6
REMARK    4  A    between atoms: _6  and  _7
REMARK    5  A    between atoms: _10  and  _12
REMARK    6  A    between atoms: _12  and  _13
REMARK    7  A    between atoms: _12  and  _15
REMARK    8  A    between atoms: _15  and  _16
REMARK    9  A    between atoms: _16  and  _17
REMARK   10  A    between atoms: _17  and  _18
REMARK   11  A    between atoms: _27  and  _29
REMARK   12  A    between atoms: _29  and  _30
REMARK   13  A    between atoms: _29  and  _32
REMARK   14  A    between atoms: _32  and  _33
REMARK   15  A    between atoms: _38  and  _39
REMARK   16  A    between atoms: _41  and  _43
REMARK   17  A    between atoms: _43  and  _44
REMARK   18  A    between atoms: _43  and  _46
REMARK   19  A    between atoms: _46  and  _47
REMARK   20  A    between atoms: _53  and  _55
REMARK   21  A    between atoms: _55  and  _56
REMARK   22  A    between atoms: _55  and  _58
REMARK   23  A    between atoms: _61  and  _63
REMARK   24  A    between atoms: _63  and  _64
REMARK   25  A    between atoms: _63  and  _66
REMARK   26  A    between atoms: _66  and  _67
REMARK   27  A    between atoms: _70  and  _72
REMARK   28  A    between atoms: _72  and  _73
REMARK   29  A    between atoms: _72  and  _75
REMARK   30  A    between atoms: _75  and  _76
REMARK   31  A    between atoms: _81  and  _82
REMARK   32  A    between atoms: _84  and  _86
REMARK   33  A    between atoms: _86  and  _87
REMARK   34  A    between atoms: _86  and  _89
REMARK   35  A    between atoms: _89  and  _90
REMARK   36  A    between atoms: _90  and  _91
REMARK   37  A    between atoms: _93  and  _95
REMARK   38  A    between atoms: _95  and  _96
REMARK   39  A    between atoms: _95  and  _98
REMARK   40  A    between atoms: _98  and  _99
REMARK   41  A    between atoms: _99  and  _100
REMARK   42  A    between atoms: _103  and  _105
REMARK   43  A    between atoms: _105  and  _106
REMARK   44  A    between atoms: _105  and  _108
REMARK   45  A    between atoms: _111  and  _113
REMARK   46  A    between atoms: _113  and  _114
REMARK   47  A    between atoms: _116  and  _118
REMARK   48  A    between atoms: _118  and  _119
REMARK   49  A    between atoms: _118  and  _121
REMARK   50  A    between atoms: _124  and  _126
REMARK   51  A    between atoms: _126  and  _127
REMARK   52  A    between atoms: _126  and  _129
REMARK   53  A    between atoms: _129  and  _130
REMARK   54  A    between atoms: _136  and  _138
REMARK   55  A    between atoms: _138  and  _139
REMARK   56  A    between atoms: _138  and  _141
REMARK   57  A    between atoms: _144  and  _146
REMARK   58  A    between atoms: _146  and  _147
REMARK   59  A    between atoms: _146  and  _149
REMARK   60  A    between atoms: _149  and  _150
REMARK   61  A    between atoms: _156  and  _158
REMARK   62  A    between atoms: _158  and  _159
REMARK   63  A    between atoms: _158  and  _161
REMARK   64  A    between atoms: _161  and  _162
REMARK   65  A    between atoms: _167  and  _168
REMARK   66  A    between atoms: _170  and  _172
REMARK   67  A    between atoms: _172  and  _173
REMARK   68  A    between atoms: _172  and  _175
REMARK   69  A    between atoms: _175  and  _176
REMARK   70  A    between atoms: _176  and  _177
REMARK   71  A    between atoms: _179  and  _181
REMARK   72  A    between atoms: _181  and  _182
REMARK   73  A    between atoms: _181  and  _184
REMARK   74  A    between atoms: _184  and  _185
REMARK   75  A    between atoms: _190  and  _191
REMARK   76  A    between atoms: _193  and  _195
REMARK   77  A    between atoms: _195  and  _196
REMARK   78  A    between atoms: _195  and  _198
REMARK   79  A    between atoms: _198  and  _199
REMARK   80  A    between atoms: _199  and  _200
REMARK   81  A    between atoms: _200  and  _201
REMARK   82  A    between atoms: _210  and  _212
REMARK   83  A    between atoms: _212  and  _213
REMARK   84  A    between atoms: _212  and  _215
REMARK   85  A    between atoms: _215  and  _216
REMARK   86  A    between atoms: _216  and  _217
REMARK   87  A    between atoms: _220  and  _222
REMARK   88  A    between atoms: _222  and  _223
REMARK   89  A    between atoms: _222  and  _225
REMARK   90  A    between atoms: _225  and  _226
REMARK   91  A    between atoms: _226  and  _227
REMARK   92  A    between atoms: _232  and  _234
REMARK   93  A    between atoms: _234  and  _235
REMARK   94  A    between atoms: _234  and  _237
REMARK   95  A    between atoms: _237  and  _238
REMARK   96  A    between atoms: _238  and  _239
REMARK   97  A    between atoms: _239  and  _240
REMARK   98  A    between atoms: _240  and  _241
REMARK   99  A    between atoms: _245  and  _247
REMARK  100  A    between atoms: _247  and  _248
REMARK  101  A    between atoms: _251  and  _253
REMARK  102  A    between atoms: _253  and  _254
REMARK  103  A    between atoms: _256  and  _258
REMARK  104  A    between atoms: _258  and  _259
REMARK  105  A    between atoms: _258  and  _261
REMARK  106  A    between atoms: _261  and  _262
REMARK  107  A    between atoms: _267  and  _269
REMARK  108  A    between atoms: _269  and  _270
REMARK  109  A    between atoms: _269  and  _272
REMARK  110  A    between atoms: _272  and  _273
REMARK  111  A    between atoms: _273  and  _274
REMARK  112  A    between atoms: _277  and  _279
REMARK  113  A    between atoms: _279  and  _280
REMARK  114  A    between atoms: _279  and  _282
REMARK  115  A    between atoms: _282  and  _283
REMARK  116  A    between atoms: _283  and  _284
REMARK  117  A    between atoms: _289  and  _291
REMARK  118  A    between atoms: _291  and  _292
REMARK  119  A    between atoms: _291  and  _294
REMARK  120  A    between atoms: _294  and  _295
REMARK  121  A    between atoms: _297  and  _299
REMARK  122  A    between atoms: _299  and  _300
REMARK  123  A    between atoms: _299  and  _302
REMARK  124  A    between atoms: _302  and  _303
REMARK  125  A    between atoms: _309  and  _311
REMARK  126  A    between atoms: _311  and  _312
REMARK  127  A    between atoms: _311  and  _314
REMARK  128  A    between atoms: _314  and  _315
REMARK  129  A    between atoms: _315  and  _316
REMARK  130  A    between atoms: _316  and  _317
REMARK  131  A    between atoms: _326  and  _328
REMARK  132  A    between atoms: _328  and  _329
REMARK  133  A    between atoms: _328  and  _331
REMARK  134  A    between atoms: _334  and  _336
REMARK  135  A    between atoms: _336  and  _337
REMARK  136  A    between atoms: _336  and  _339
REMARK  137  A    between atoms: _339  and  _340
REMARK  138  A    between atoms: _343  and  _345
REMARK  139  A    between atoms: _345  and  _346
REMARK  140  A    between atoms: _345  and  _348
REMARK  141  A    between atoms: _348  and  _349
REMARK  142  A    between atoms: _352  and  _354
REMARK  143  A    between atoms: _354  and  _355
REMARK  144  A    between atoms: _354  and  _357
REMARK  145  A    between atoms: _357  and  _358
REMARK  146  A    between atoms: _358  and  _359
REMARK  147  A    between atoms: _359  and  _360
REMARK  148  A    between atoms: _369  and  _371
REMARK  149  A    between atoms: _371  and  _372
REMARK  150  A    between atoms: _371  and  _374
REMARK  151  A    between atoms: _374  and  _375
REMARK  152  A    between atoms: _378  and  _380
REMARK  153  A    between atoms: _380  and  _381
REMARK  154  A    between atoms: _380  and  _383
REMARK  155  A    between atoms: _383  and  _384
REMARK  156  A    between atoms: _387  and  _389
REMARK  157  A    between atoms: _389  and  _390
REMARK  158  A    between atoms: _389  and  _392
REMARK  159  A    between atoms: _392  and  _393
REMARK  160  A    between atoms: _398  and  _399
REMARK  161  A    between atoms: _401  and  _403
REMARK  162  A    between atoms: _403  and  _404
REMARK  163  A    between atoms: _403  and  _406
REMARK  164  A    between atoms: _406  and  _407
REMARK  165  A    between atoms: _412  and  _413
REMARK  166  A    between atoms: _415  and  _417
REMARK  167  A    between atoms: _417  and  _418
REMARK  168  A    between atoms: _417  and  _420
REMARK  169  A    between atoms: _420  and  _421
REMARK  170  A    between atoms: _424  and  _426
REMARK  171  A    between atoms: _426  and  _427
REMARK  172  A    between atoms: _426  and  _429
REMARK  173  A    between atoms: _429  and  _430
REMARK  174  A    between atoms: _430  and  _431
REMARK  175  A    between atoms: _436  and  _438
REMARK  176  A    between atoms: _438  and  _439
REMARK  177  A    between atoms: _438  and  _441
REMARK  178  A    between atoms: _444  and  _446
REMARK  179  A    between atoms: _446  and  _447
REMARK  180  A    between atoms: _446  and  _449
REMARK  181  A    between atoms: _449  and  _450
REMARK  182  A    between atoms: _453  and  _455
REMARK  183  A    between atoms: _455  and  _456
REMARK  184  A    between atoms: _455  and  _458
REMARK  185  A    between atoms: _458  and  _459
REMARK  186  A    between atoms: _461  and  _463
REMARK  187  A    between atoms: _463  and  _464
REMARK  188  A    between atoms: _466  and  _468
REMARK  189  A    between atoms: _468  and  _469
REMARK  190  A    between atoms: _468  and  _471
REMARK  191  A    between atoms: _471  and  _472
REMARK  192  A    between atoms: _472  and  _774
REMARK  193  A    between atoms: _473  and  _475
REMARK  194  A    between atoms: _475  and  _476
REMARK  195  A    between atoms: _475  and  _478
REMARK  196  A    between atoms: _478  and  _479
REMARK  197  A    between atoms: _484  and  _485
REMARK  198  A    between atoms: _487  and  _489
REMARK  199  A    between atoms: _489  and  _490
REMARK  200  A    between atoms: _489  and  _492
REMARK  201  A    between atoms: _492  and  _493
REMARK  202  A    between atoms: _493  and  _494
REMARK  203  A    between atoms: _499  and  _501
REMARK  204  A    between atoms: _501  and  _502
REMARK  205  A    between atoms: _501  and  _504
REMARK  206  A    between atoms: _504  and  _505
REMARK  207  A    between atoms: _505  and  _506
REMARK  208  A    between atoms: _511  and  _513
REMARK  209  A    between atoms: _513  and  _514
REMARK  210  A    between atoms: _513  and  _516
REMARK  211  A    between atoms: _516  and  _517
REMARK  212  A    between atoms: _522  and  _523
REMARK  213  A    between atoms: _525  and  _527
REMARK  214  A    between atoms: _527  and  _528
REMARK  215  A    between atoms: _531  and  _533
REMARK  216  A    between atoms: _533  and  _534
REMARK  217  A    between atoms: _533  and  _536
REMARK  218  A    between atoms: _536  and  _537
REMARK  219  A    between atoms: _542  and  _543
REMARK  220  A    between atoms: _545  and  _547
REMARK  221  A    between atoms: _547  and  _548
REMARK  222  A    between atoms: _547  and  _550
REMARK  223  A    between atoms: _550  and  _551
REMARK  224  A    between atoms: _556  and  _557
REMARK  225  A    between atoms: _559  and  _561
REMARK  226  A    between atoms: _561  and  _562
REMARK  227  A    between atoms: _561  and  _564
REMARK  228  A    between atoms: _564  and  _565
REMARK  229  A    between atoms: _568  and  _570
REMARK  230  A    between atoms: _570  and  _571
REMARK  231  A    between atoms: _574  and  _576
REMARK  232  A    between atoms: _576  and  _577
REMARK  233  A    between atoms: _580  and  _582
REMARK  234  A    between atoms: _582  and  _583
REMARK  235  A    between atoms: _582  and  _585
REMARK  236  A    between atoms: _585  and  _586
REMARK  237  A    between atoms: _589  and  _591
REMARK  238  A    between atoms: _591  and  _592
REMARK  239  A    between atoms: _591  and  _594
REMARK  240  A    between atoms: _594  and  _595
REMARK  241  A    between atoms: _598  and  _600
REMARK  242  A    between atoms: _600  and  _601
REMARK  243  A    between atoms: _600  and  _603
REMARK  244  A    between atoms: _603  and  _604
REMARK  245  A    between atoms: _607  and  _609
REMARK  246  A    between atoms: _609  and  _610
REMARK  247  A    between atoms: _609  and  _612
REMARK  248  A    between atoms: _612  and  _613
REMARK  249  A    between atoms: _613  and  _614
REMARK  250  A    between atoms: _614  and  _615
REMARK  251  A    between atoms: _615  and  _616
REMARK  252  A    between atoms: _620  and  _622
REMARK  253  A    between atoms: _622  and  _623
REMARK  254  A    between atoms: _622  and  _625
REMARK  255  A    between atoms: _625  and  _626
REMARK  256  A    between atoms: _631  and  _633
REMARK  257  A    between atoms: _633  and  _634
REMARK  258  A    between atoms: _633  and  _636
REMARK  259  A    between atoms: _636  and  _637
REMARK  260  A    between atoms: _637  and  _638
REMARK  261  A    between atoms: _638  and  _639
REMARK  262  A    between atoms: _639  and  _640
REMARK  263  A    between atoms: _644  and  _646
REMARK  264  A    between atoms: _646  and  _647
REMARK  265  A    between atoms: _646  and  _649
REMARK  266  A    between atoms: _649  and  _650
REMARK  267  A    between atoms: _660  and  _662
REMARK  268  A    between atoms: _662  and  _663
REMARK  269  A    between atoms: _666  and  _668
REMARK  270  A    between atoms: _668  and  _669
REMARK  271  A    between atoms: _671  and  _673
REMARK  272  A    between atoms: _673  and  _674
REMARK  273  A    between atoms: _673  and  _676
REMARK  274  A    between atoms: _676  and  _677
REMARK  275  A    between atoms: _677  and  _678
REMARK  276  A    between atoms: _681  and  _683
REMARK  277  A    between atoms: _683  and  _684
REMARK  278  A    between atoms: _687  and  _689
REMARK  279  A    between atoms: _689  and  _690
REMARK  280  A    between atoms: _689  and  _692
REMARK  281  A    between atoms: _692  and  _693
REMARK  282  A    between atoms: _693  and  _694
REMARK  283  A    between atoms: _694  and  _695
REMARK  284  A    between atoms: _704  and  _706
REMARK  285  A    between atoms: _706  and  _707
REMARK  286  A    between atoms: _706  and  _709
REMARK  287  A    between atoms: _709  and  _710
REMARK  288  A    between atoms: _713  and  _715
REMARK  289  A    between atoms: _715  and  _716
REMARK  290  A    between atoms: _715  and  _718
REMARK  291  A    between atoms: _718  and  _719
REMARK  292  A    between atoms: _719  and  _720
REMARK  293  A    between atoms: _720  and  _721
REMARK  294  A    between atoms: _730  and  _732
REMARK  295  A    between atoms: _732  and  _733
REMARK  296  A    between atoms: _736  and  _738
REMARK  297  A    between atoms: _738  and  _739
REMARK  298  A    between atoms: _738  and  _741
REMARK  299  A    between atoms: _741  and  _742
REMARK  300  A    between atoms: _747  and  _748
REMARK  301  A    between atoms: _750  and  _752
REMARK  302  A    between atoms: _752  and  _753
REMARK  303  A    between atoms: _752  and  _755
REMARK  304  A    between atoms: _755  and  _756
REMARK  305  A    between atoms: _759  and  _761
REMARK  306  A    between atoms: _761  and  _762
REMARK  307  A    between atoms: _761  and  _764
REMARK  308  A    between atoms: _764  and  _765
REMARK  309  A    between atoms: _768  and  _770
REMARK  310  A    between atoms: _770  and  _771
REMARK  311  A    between atoms: _770  and  _773
REMARK  312  A    between atoms: _773  and  _774
REMARK  313  A    between atoms: _775  and  _777
REMARK  314  A    between atoms: _777  and  _778
REMARK  315  A    between atoms: _777  and  _780
REMARK  316  A    between atoms: _783  and  _785
REMARK  317  A    between atoms: _785  and  _786
REMARK  318  A    between atoms: _785  and  _788
REMARK  319  A    between atoms: _788  and  _789
REMARK  320  A    between atoms: _789  and  _790
REMARK  321  A    between atoms: _793  and  _795
REMARK  322  A    between atoms: _795  and  _796
REMARK  323  A    between atoms: _795  and  _798
REMARK  324  A    between atoms: _798  and  _799
REMARK  325  A    between atoms: _809  and  _811
REMARK  326  A    between atoms: _811  and  _812
REMARK  327  A    between atoms: _811  and  _814
REMARK  328  A    between atoms: _814  and  _815
REMARK  329  A    between atoms: _818  and  _820
REMARK  330  A    between atoms: _820  and  _821
REMARK  331  A    between atoms: _820  and  _823
REMARK  332  A    between atoms: _823  and  _824
REMARK  333  A    between atoms: _829  and  _830
REMARK                            x       y       z     vdW  Elec       q    Type
REMARK                         _______ _______ _______ _____ _____    ______ ____
ROOT
ATOM      1  O   HOH     1     -23.228  15.851  36.019  0.00  0.00    +0.000 OA
ENDROOT
TORSDOF 0
REMARK  Name = ../refined-set-2016/3p9l/3p9l_pocket.pdb
REMARK  333 active torsions:
REMARK  status: ('A' for Active; 'I' for Inactive)
REMARK    1  A    between atoms: _1  and  _3
REMARK    2  A    between atoms: _3  and  _4
REMARK    3  A    between atoms: _3  and  _6
REMARK    4  A    between atoms: _6  and  _7
REMARK    5  A    between atoms: _10  and  _12
REMARK    6  A    between atoms: _12  and  _13
REMARK    7  A    between atoms: _12  and  _15
REMARK    8  A    between atoms: _15  and  _16
REMARK    9  A    between atoms: _16  and  _17
REMARK   10  A    between atoms: _17  and  _18
REMARK   11  A    between atoms: _27  and  _29
REMARK   12  A    between atoms: _29  and  _30
REMARK   13  A    between atoms: _29  and  _32
REMARK   14  A    between atoms: _32  and  _33
REMARK   15  A    between atoms: _38  and  _39
REMARK   16  A    between atoms: _41  and  _43
REMARK   17  A    between atoms: _43  and  _44
REMARK   18  A    between atoms: _43  and  _46
REMARK   19  A    between atoms: _46  and  _47
REMARK   20  A    between atoms: _53  and  _55
REMARK   21  A    between atoms: _55  and  _56
REMARK   22  A    between atoms: _55  and  _58
REMARK   23  A    between atoms: _61  and  _63
REMARK   24  A    between atoms: _63  and  _64
REMARK   25  A    between atoms: _63  and  _66
REMARK   26  A    between atoms: _66  and  _67
REMARK   27  A    between atoms: _70  and  _72
REMARK   28  A    between atoms: _72  and  _73
REMARK   29  A    between atoms: _72  and  _75
REMARK   30  A    between atoms: _75  and  _76
REMARK   31  A    between atoms: _81  and  _82
REMARK   32  A    between atoms: _84  and  _86
REMARK   33  A    between atoms: _86  and  _87
REMARK   34  A    between atoms: _86  and  _89
REMARK   35  A    between atoms: _89  and  _90
REMARK   36  A    between atoms: _90  and  _91
REMARK   37  A    between atoms: _93  and  _95
REMARK   38  A    between atoms: _95  and  _96
REMARK   39  A    between atoms: _95  and  _98
REMARK   40  A    between atoms: _98  and  _99
REMARK   41  A    between atoms: _99  and  _100
REMARK   42  A    between atoms: _103  and  _105
REMARK   43  A    between atoms: _105  and  _106
REMARK   44  A    between atoms: _105  and  _108
REMARK   45  A    between atoms: _111  and  _113
REMARK   46  A    between atoms: _113  and  _114
REMARK   47  A    between atoms: _116  and  _118
REMARK   48  A    between atoms: _118  and  _119
REMARK   49  A    between atoms: _118  and  _121
REMARK   50  A    between atoms: _124  and  _126
REMARK   51  A    between atoms: _126  and  _127
REMARK   52  A    between atoms: _126  and  _129
REMARK   53  A    between atoms: _129  and  _130
REMARK   54  A    between atoms: _136  and  _138
REMARK   55  A    between atoms: _138  and  _139
REMARK   56  A    between atoms: _138  and  _141
REMARK   57  A    between atoms: _144  and  _146
REMARK   58  A    between atoms: _146  and  _147
REMARK   59  A    between atoms: _146  and  _149
REMARK   60  A    between atoms: _149  and  _150
REMARK   61  A    between atoms: _156  and  _158
REMARK   62  A    between atoms: _158  and  _159
REMARK   63  A    between atoms: _158  and  _161
REMARK   64  A    between atoms: _161  and  _162
REMARK   65  A    between atoms: _167  and  _168
REMARK   66  A    between atoms: _170  and  _172
REMARK   67  A    between atoms: _172  and  _173
REMARK   68  A    between atoms: _172  and  _175
REMARK   69  A    between atoms: _175  and  _176
REMARK   70  A    between atoms: _176  and  _177
REMARK   71  A    between atoms: _179  and  _181
REMARK   72  A    between atoms: _181  and  _182
REMARK   73  A    between atoms: _181  and  _184
REMARK   74  A    between atoms: _184  and  _185
REMARK   75  A    between atoms: _190  and  _191
REMARK   76  A    between atoms: _193  and  _195
REMARK   77  A    between atoms: _195  and  _196
REMARK   78  A    between atoms: _195  and  _198
REMARK   79  A    between atoms: _198  and  _199
REMARK   80  A    between atoms: _199  and  _200
REMARK   81  A    between atoms: _200  and  _201
REMARK   82  A    between atoms: _210  and  _212
REMARK   83  A    between atoms: _212  and  _213
REMARK   84  A    between atoms: _212  and  _215
REMARK   85  A    between atoms: _215  and  _216
REMARK   86  A    between atoms: _216  and  _217
REMARK   87  A    between atoms: _220  and  _222
REMARK   88  A    between atoms: _222  and  _223
REMARK   89  A    between atoms: _222  and  _225
REMARK   90  A    between atoms: _225  and  _226
REMARK   91  A    between atoms: _226  and  _227
REMARK   92  A    between atoms: _232  and  _234
REMARK   93  A    between atoms: _234  and  _235
REMARK   94  A    between atoms: _234  and  _237
REMARK   95  A    between atoms: _237  and  _238
REMARK   96  A    between atoms: _238  and  _239
REMARK   97  A    between atoms: _239  and  _240
REMARK   98  A    between atoms: _240  and  _241
REMARK   99  A    between atoms: _245  and  _247
REMARK  100  A    between atoms: _247  and  _248
REMARK  101  A    between atoms: _251  and  _253
REMARK  102  A    between atoms: _253  and  _254
REMARK  103  A    between atoms: _256  and  _258
REMARK  104  A    between atoms: _258  and  _259
REMARK  105  A    between atoms: _258  and  _261
REMARK  106  A    between atoms: _261  and  _262
REMARK  107  A    between atoms: _267  and  _269
REMARK  108  A    between atoms: _269  and  _270
REMARK  109  A    between atoms: _269  and  _272
REMARK  110  A    between atoms: _272  and  _273
REMARK  111  A    between atoms: _273  and  _274
REMARK  112  A    between atoms: _277  and  _279
REMARK  113  A    between atoms: _279  and  _280
REMARK  114  A    between atoms: _279  and  _282
REMARK  115  A    between atoms: _282  and  _283
REMARK  116  A    between atoms: _283  and  _284
REMARK  117  A    between atoms: _289  and  _291
REMARK  118  A    between atoms: _291  and  _292
REMARK  119  A    between atoms: _291  and  _294
REMARK  120  A    between atoms: _294  and  _295
REMARK  121  A    between atoms: _297  and  _299
REMARK  122  A    between atoms: _299  and  _300
REMARK  123  A    between atoms: _299  and  _302
REMARK  124  A    between atoms: _302  and  _303
REMARK  125  A    between atoms: _309  and  _311
REMARK  126  A    between atoms: _311  and  _312
REMARK  127  A    between atoms: _311  and  _314
REMARK  128  A    between atoms: _314  and  _315
REMARK  129  A    between atoms: _315  and  _316
REMARK  130  A    between atoms: _316  and  _317
REMARK  131  A    between atoms: _326  and  _328
REMARK  132  A    between atoms: _328  and  _329
REMARK  133  A    between atoms: _328  and  _331
REMARK  134  A    between atoms: _334  and  _336
REMARK  135  A    between atoms: _336  and  _337
REMARK  136  A    between atoms: _336  and  _339
REMARK  137  A    between atoms: _339  and  _340
REMARK  138  A    between atoms: _343  and  _345
REMARK  139  A    between atoms: _345  and  _346
REMARK  140  A    between atoms: _345  and  _348
REMARK  141  A    between atoms: _348  and  _349
REMARK  142  A    between atoms: _352  and  _354
REMARK  143  A    between atoms: _354  and  _355
REMARK  144  A    between atoms: _354  and  _357
REMARK  145  A    between atoms: _357  and  _358
REMARK  146  A    between atoms: _358  and  _359
REMARK  147  A    between atoms: _359  and  _360
REMARK  148  A    between atoms: _369  and  _371
REMARK  149  A    between atoms: _371  and  _372
REMARK  150  A    between atoms: _371  and  _374
REMARK  151  A    between atoms: _374  and  _375
REMARK  152  A    between atoms: _378  and  _380
REMARK  153  A    between atoms: _380  and  _381
REMARK  154  A    between atoms: _380  and  _383
REMARK  155  A    between atoms: _383  and  _384
REMARK  156  A    between atoms: _387  and  _389
REMARK  157  A    between atoms: _389  and  _390
REMARK  158  A    between atoms: _389  and  _392
REMARK  159  A    between atoms: _392  and  _393
REMARK  160  A    between atoms: _398  and  _399
REMARK  161  A    between atoms: _401  and  _403
REMARK  162  A    between atoms: _403  and  _404
REMARK  163  A    between atoms: _403  and  _406
REMARK  164  A    between atoms: _406  and  _407
REMARK  165  A    between atoms: _412  and  _413
REMARK  166  A    between atoms: _415  and  _417
REMARK  167  A    between atoms: _417  and  _418
REMARK  168  A    between atoms: _417  and  _420
REMARK  169  A    between atoms: _420  and  _421
REMARK  170  A    between atoms: _424  and  _426
REMARK  171  A    between atoms: _426  and  _427
REMARK  172  A    between atoms: _426  and  _429
REMARK  173  A    between atoms: _429  and  _430
REMARK  174  A    between atoms: _430  and  _431
REMARK  175  A    between atoms: _436  and  _438
REMARK  176  A    between atoms: _438  and  _439
REMARK  177  A    between atoms: _438  and  _441
REMARK  178  A    between atoms: _444  and  _446
REMARK  179  A    between atoms: _446  and  _447
REMARK  180  A    between atoms: _446  and  _449
REMARK  181  A    between atoms: _449  and  _450
REMARK  182  A    between atoms: _453  and  _455
REMARK  183  A    between atoms: _455  and  _456
REMARK  184  A    between atoms: _455  and  _458
REMARK  185  A    between atoms: _458  and  _459
REMARK  186  A    between atoms: _461  and  _463
REMARK  187  A    between atoms: _463  and  _464
REMARK  188  A    between atoms: _466  and  _468
REMARK  189  A    between atoms: _468  and  _469
REMARK  190  A    between atoms: _468  and  _471
REMARK  191  A    between atoms: _471  and  _472
REMARK  192  A    between atoms: _472  and  _774
REMARK  193  A    between atoms: _473  and  _475
REMARK  194  A    between atoms: _475  and  _476
REMARK  195  A    between atoms: _475  and  _478
REMARK  196  A    between atoms: _478  and  _479
REMARK  197  A    between atoms: _484  and  _485
REMARK  198  A    between atoms: _487  and  _489
REMARK  199  A    between atoms: _489  and  _490
REMARK  200  A    between atoms: _489  and  _492
REMARK  201  A    between atoms: _492  and  _493
REMARK  202  A    between atoms: _493  and  _494
REMARK  203  A    between atoms: _499  and  _501
REMARK  204  A    between atoms: _501  and  _502
REMARK  205  A    between atoms: _501  and  _504
REMARK  206  A    between atoms: _504  and  _505
REMARK  207  A    between atoms: _505  and  _506
REMARK  208  A    between atoms: _511  and  _513
REMARK  209  A    between atoms: _513  and  _514
REMARK  210  A    between atoms: _513  and  _516
REMARK  211  A    between atoms: _516  and  _517
REMARK  212  A    between atoms: _522  and  _523
REMARK  213  A    between atoms: _525  and  _527
REMARK  214  A    between atoms: _527  and  _528
REMARK  215  A    between atoms: _531  and  _533
REMARK  216  A    between atoms: _533  and  _534
REMARK  217  A    between atoms: _533  and  _536
REMARK  218  A    between atoms: _536  and  _537
REMARK  219  A    between atoms: _542  and  _543
REMARK  220  A    between atoms: _545  and  _547
REMARK  221  A    between atoms: _547  and  _548
REMARK  222  A    between atoms: _547  and  _550
REMARK  223  A    between atoms: _550  and  _551
REMARK  224  A    between atoms: _556  and  _557
REMARK  225  A    between atoms: _559  and  _561
REMARK  226  A    between atoms: _561  and  _562
REMARK  227  A    between atoms: _561  and  _564
REMARK  228  A    between atoms: _564  and  _565
REMARK  229  A    between atoms: _568  and  _570
REMARK  230  A    between atoms: _570  and  _571
REMARK  231  A    between atoms: _574  and  _576
REMARK  232  A    between atoms: _576  and  _577
REMARK  233  A    between atoms: _580  and  _582
REMARK  234  A    between atoms: _582  and  _583
REMARK  235  A    between atoms: _582  and  _585
REMARK  236  A    between atoms: _585  and  _586
REMARK  237  A    between atoms: _589  and  _591
REMARK  238  A    between atoms: _591  and  _592
REMARK  239  A    between atoms: _591  and  _594
REMARK  240  A    between atoms: _594  and  _595
REMARK  241  A    between atoms: _598  and  _600
REMARK  242  A    between atoms: _600  and  _601
REMARK  243  A    between atoms: _600  and  _603
REMARK  244  A    between atoms: _603  and  _604
REMARK  245  A    between atoms: _607  and  _609
REMARK  246  A    between atoms: _609  and  _610
REMARK  247  A    between atoms: _609  and  _612
REMARK  248  A    between atoms: _612  and  _613
REMARK  249  A    between atoms: _613  and  _614
REMARK  250  A    between atoms: _614  and  _615
REMARK  251  A    between atoms: _615  and  _616
REMARK  252  A    between atoms: _620  and  _622
REMARK  253  A    between atoms: _622  and  _623
REMARK  254  A    between atoms: _622  and  _625
REMARK  255  A    between atoms: _625  and  _626
REMARK  256  A    between atoms: _631  and  _633
REMARK  257  A    between atoms: _633  and  _634
REMARK  258  A    between atoms: _633  and  _636
REMARK  259  A    between atoms: _636  and  _637
REMARK  260  A    between atoms: _637  and  _638
REMARK  261  A    between atoms: _638  and  _639
REMARK  262  A    between atoms: _639  and  _640
REMARK  263  A    between atoms: _644  and  _646
REMARK  264  A    between atoms: _646  and  _647
REMARK  265  A    between atoms: _646  and  _649
REMARK  266  A    between atoms: _649  and  _650
REMARK  267  A    between atoms: _660  and  _662
REMARK  268  A    between atoms: _662  and  _663
REMARK  269  A    between atoms: _666  and  _668
REMARK  270  A    between atoms: _668  and  _669
REMARK  271  A    between atoms: _671  and  _673
REMARK  272  A    between atoms: _673  and  _674
REMARK  273  A    between atoms: _673  and  _676
REMARK  274  A    between atoms: _676  and  _677
REMARK  275  A    between atoms: _677  and  _678
REMARK  276  A    between atoms: _681  and  _683
REMARK  277  A    between atoms: _683  and  _684
REMARK  278  A    between atoms: _687  and  _689
REMARK  279  A    between atoms: _689  and  _690
REMARK  280  A    between atoms: _689  and  _692
REMARK  281  A    between atoms: _692  and  _693
REMARK  282  A    between atoms: _693  and  _694
REMARK  283  A    between atoms: _694  and  _695
REMARK  284  A    between atoms: _704  and  _706
REMARK  285  A    between atoms: _706  and  _707
REMARK  286  A    between atoms: _706  and  _709
REMARK  287  A    between atoms: _709  and  _710
REMARK  288  A    between atoms: _713  and  _715
REMARK  289  A    between atoms: _715  and  _716
REMARK  290  A    between atoms: _715  and  _718
REMARK  291  A    between atoms: _718  and  _719
REMARK  292  A    between atoms: _719  and  _720
REMARK  293  A    between atoms: _720  and  _721
REMARK  294  A    between atoms: _730  and  _732
REMARK  295  A    between atoms: _732  and  _733
REMARK  296  A    between atoms: _736  and  _738
REMARK  297  A    between atoms: _738  and  _739
REMARK  298  A    between atoms: _738  and  _741
REMARK  299  A    between atoms: _741  and  _742
REMARK  300  A    between atoms: _747  and  _748
REMARK  301  A    between atoms: _750  and  _752
REMARK  302  A    between atoms: _752  and  _753
REMARK  303  A    between atoms: _752  and  _755
REMARK  304  A    between atoms: _755  and  _756
REMARK  305  A    between atoms: _759  and  _761
REMARK  306  A    between atoms: _761  and  _762
REMARK  307  A    between atoms: _761  and  _764
REMARK  308  A    between atoms: _764  and  _765
REMARK  309  A    between atoms: _768  and  _770
REMARK  310  A    between atoms: _770  and  _771
REMARK  311  A    between atoms: _770  and  _773
REMARK  312  A    between atoms: _773  and  _774
REMARK  313  A    between atoms: _775  and  _777
REMARK  314  A    between atoms: _777  and  _778
REMARK  315  A    between atoms: _777  and  _780
REMARK  316  A    between atoms: _783  and  _785
REMARK  317  A    between atoms: _785  and  _786
REMARK  318  A    between atoms: _785  and  _788
REMARK  319  A    between atoms: _788  and  _789
REMARK  320  A    between atoms: _789  and  _790
REMARK  321  A    between atoms: _793  and  _795
REMARK  322  A    between atoms: _795  and  _796
REMARK  323  A    between atoms: _795  and  _798
REMARK  324  A    between atoms: _798  and  _799
REMARK  325  A    between atoms: _809  and  _811
REMARK  326  A    between atoms: _811  and  _812
REMARK  327  A    between atoms: _811  and  _814
REMARK  328  A    between atoms: _814  and  _815
REMARK  329  A    between atoms: _818  and  _820
REMARK  330  A    between atoms: _820  and  _821
REMARK  331  A    between atoms: _820  and  _823
REMARK  332  A    between atoms: _823  and  _824
REMARK  333  A    between atoms: _829  and  _830
REMARK                            x       y       z     vdW  Elec       q    Type
REMARK                         _______ _______ _______ _____ _____    ______ ____
ROOT
ATOM      1  O   HOH     1     -21.103  16.300  32.231  0.00  0.00    +0.000 OA
ENDROOT
TORSDOF 0
REMARK  Name = ../refined-set-2016/3p9l/3p9l_pocket.pdb
REMARK  333 active torsions:
REMARK  status: ('A' for Active; 'I' for Inactive)
REMARK    1  A    between atoms: _1  and  _3
REMARK    2  A    between atoms: _3  and  _4
REMARK    3  A    between atoms: _3  and  _6
REMARK    4  A    between atoms: _6  and  _7
REMARK    5  A    between atoms: _10  and  _12
REMARK    6  A    between atoms: _12  and  _13
REMARK    7  A    between atoms: _12  and  _15
REMARK    8  A    between atoms: _15  and  _16
REMARK    9  A    between atoms: _16  and  _17
REMARK   10  A    between atoms: _17  and  _18
REMARK   11  A    between atoms: _27  and  _29
REMARK   12  A    between atoms: _29  and  _30
REMARK   13  A    between atoms: _29  and  _32
REMARK   14  A    between atoms: _32  and  _33
REMARK   15  A    between atoms: _38  and  _39
REMARK   16  A    between atoms: _41  and  _43
REMARK   17  A    between atoms: _43  and  _44
REMARK   18  A    between atoms: _43  and  _46
REMARK   19  A    between atoms: _46  and  _47
REMARK   20  A    between atoms: _53  and  _55
REMARK   21  A    between atoms: _55  and  _56
REMARK   22  A    between atoms: _55  and  _58
REMARK   23  A    between atoms: _61  and  _63
REMARK   24  A    between atoms: _63  and  _64
REMARK   25  A    between atoms: _63  and  _66
REMARK   26  A    between atoms: _66  and  _67
REMARK   27  A    between atoms: _70  and  _72
REMARK   28  A    between atoms: _72  and  _73
REMARK   29  A    between atoms: _72  and  _75
REMARK   30  A    between atoms: _75  and  _76
REMARK   31  A    between atoms: _81  and  _82
REMARK   32  A    between atoms: _84  and  _86
REMARK   33  A    between atoms: _86  and  _87
REMARK   34  A    between atoms: _86  and  _89
REMARK   35  A    between atoms: _89  and  _90
REMARK   36  A    between atoms: _90  and  _91
REMARK   37  A    between atoms: _93  and  _95
REMARK   38  A    between atoms: _95  and  _96
REMARK   39  A    between atoms: _95  and  _98
REMARK   40  A    between atoms: _98  and  _99
REMARK   41  A    between atoms: _99  and  _100
REMARK   42  A    between atoms: _103  and  _105
REMARK   43  A    between atoms: _105  and  _106
REMARK   44  A    between atoms: _105  and  _108
REMARK   45  A    between atoms: _111  and  _113
REMARK   46  A    between atoms: _113  and  _114
REMARK   47  A    between atoms: _116  and  _118
REMARK   48  A    between atoms: _118  and  _119
REMARK   49  A    between atoms: _118  and  _121
REMARK   50  A    between atoms: _124  and  _126
REMARK   51  A    between atoms: _126  and  _127
REMARK   52  A    between atoms: _126  and  _129
REMARK   53  A    between atoms: _129  and  _130
REMARK   54  A    between atoms: _136  and  _138
REMARK   55  A    between atoms: _138  and  _139
REMARK   56  A    between atoms: _138  and  _141
REMARK   57  A    between atoms: _144  and  _146
REMARK   58  A    between atoms: _146  and  _147
REMARK   59  A    between atoms: _146  and  _149
REMARK   60  A    between atoms: _149  and  _150
REMARK   61  A    between atoms: _156  and  _158
REMARK   62  A    between atoms: _158  and  _159
REMARK   63  A    between atoms: _158  and  _161
REMARK   64  A    between atoms: _161  and  _162
REMARK   65  A    between atoms: _167  and  _168
REMARK   66  A    between atoms: _170  and  _172
REMARK   67  A    between atoms: _172  and  _173
REMARK   68  A    between atoms: _172  and  _175
REMARK   69  A    between atoms: _175  and  _176
REMARK   70  A    between atoms: _176  and  _177
REMARK   71  A    between atoms: _179  and  _181
REMARK   72  A    between atoms: _181  and  _182
REMARK   73  A    between atoms: _181  and  _184
REMARK   74  A    between atoms: _184  and  _185
REMARK   75  A    between atoms: _190  and  _191
REMARK   76  A    between atoms: _193  and  _195
REMARK   77  A    between atoms: _195  and  _196
REMARK   78  A    between atoms: _195  and  _198
REMARK   79  A    between atoms: _198  and  _199
REMARK   80  A    between atoms: _199  and  _200
REMARK   81  A    between atoms: _200  and  _201
REMARK   82  A    between atoms: _210  and  _212
REMARK   83  A    between atoms: _212  and  _213
REMARK   84  A    between atoms: _212  and  _215
REMARK   85  A    between atoms: _215  and  _216
REMARK   86  A    between atoms: _216  and  _217
REMARK   87  A    between atoms: _220  and  _222
REMARK   88  A    between atoms: _222  and  _223
REMARK   89  A    between atoms: _222  and  _225
REMARK   90  A    between atoms: _225  and  _226
REMARK   91  A    between atoms: _226  and  _227
REMARK   92  A    between atoms: _232  and  _234
REMARK   93  A    between atoms: _234  and  _235
REMARK   94  A    between atoms: _234  and  _237
REMARK   95  A    between atoms: _237  and  _238
REMARK   96  A    between atoms: _238  and  _239
REMARK   97  A    between atoms: _239  and  _240
REMARK   98  A    between atoms: _240  and  _241
REMARK   99  A    between atoms: _245  and  _247
REMARK  100  A    between atoms: _247  and  _248
REMARK  101  A    between atoms: _251  and  _253
REMARK  102  A    between atoms: _253  and  _254
REMARK  103  A    between atoms: _256  and  _258
REMARK  104  A    between atoms: _258  and  _259
REMARK  105  A    between atoms: _258  and  _261
REMARK  106  A    between atoms: _261  and  _262
REMARK  107  A    between atoms: _267  and  _269
REMARK  108  A    between atoms: _269  and  _270
REMARK  109  A    between atoms: _269  and  _272
REMARK  110  A    between atoms: _272  and  _273
REMARK  111  A    between atoms: _273  and  _274
REMARK  112  A    between atoms: _277  and  _279
REMARK  113  A    between atoms: _279  and  _280
REMARK  114  A    between atoms: _279  and  _282
REMARK  115  A    between atoms: _282  and  _283
REMARK  116  A    between atoms: _283  and  _284
REMARK  117  A    between atoms: _289  and  _291
REMARK  118  A    between atoms: _291  and  _292
REMARK  119  A    between atoms: _291  and  _294
REMARK  120  A    between atoms: _294  and  _295
REMARK  121  A    between atoms: _297  and  _299
REMARK  122  A    between atoms: _299  and  _300
REMARK  123  A    between atoms: _299  and  _302
REMARK  124  A    between atoms: _302  and  _303
REMARK  125  A    between atoms: _309  and  _311
REMARK  126  A    between atoms: _311  and  _312
REMARK  127  A    between atoms: _311  and  _314
REMARK  128  A    between atoms: _314  and  _315
REMARK  129  A    between atoms: _315  and  _316
REMARK  130  A    between atoms: _316  and  _317
REMARK  131  A    between atoms: _326  and  _328
REMARK  132  A    between atoms: _328  and  _329
REMARK  133  A    between atoms: _328  and  _331
REMARK  134  A    between atoms: _334  and  _336
REMARK  135  A    between atoms: _336  and  _337
REMARK  136  A    between atoms: _336  and  _339
REMARK  137  A    between atoms: _339  and  _340
REMARK  138  A    between atoms: _343  and  _345
REMARK  139  A    between atoms: _345  and  _346
REMARK  140  A    between atoms: _345  and  _348
REMARK  141  A    between atoms: _348  and  _349
REMARK  142  A    between atoms: _352  and  _354
REMARK  143  A    between atoms: _354  and  _355
REMARK  144  A    between atoms: _354  and  _357
REMARK  145  A    between atoms: _357  and  _358
REMARK  146  A    between atoms: _358  and  _359
REMARK  147  A    between atoms: _359  and  _360
REMARK  148  A    between atoms: _369  and  _371
REMARK  149  A    between atoms: _371  and  _372
REMARK  150  A    between atoms: _371  and  _374
REMARK  151  A    between atoms: _374  and  _375
REMARK  152  A    between atoms: _378  and  _380
REMARK  153  A    between atoms: _380  and  _381
REMARK  154  A    between atoms: _380  and  _383
REMARK  155  A    between atoms: _383  and  _384
REMARK  156  A    between atoms: _387  and  _389
REMARK  157  A    between atoms: _389  and  _390
REMARK  158  A    between atoms: _389  and  _392
REMARK  159  A    between atoms: _392  and  _393
REMARK  160  A    between atoms: _398  and  _399
REMARK  161  A    between atoms: _401  and  _403
REMARK  162  A    between atoms: _403  and  _404
REMARK  163  A    between atoms: _403  and  _406
REMARK  164  A    between atoms: _406  and  _407
REMARK  165  A    between atoms: _412  and  _413
REMARK  166  A    between atoms: _415  and  _417
REMARK  167  A    between atoms: _417  and  _418
REMARK  168  A    between atoms: _417  and  _420
REMARK  169  A    between atoms: _420  and  _421
REMARK  170  A    between atoms: _424  and  _426
REMARK  171  A    between atoms: _426  and  _427
REMARK  172  A    between atoms: _426  and  _429
REMARK  173  A    between atoms: _429  and  _430
REMARK  174  A    between atoms: _430  and  _431
REMARK  175  A    between atoms: _436  and  _438
REMARK  176  A    between atoms: _438  and  _439
REMARK  177  A    between atoms: _438  and  _441
REMARK  178  A    between atoms: _444  and  _446
REMARK  179  A    between atoms: _446  and  _447
REMARK  180  A    between atoms: _446  and  _449
REMARK  181  A    between atoms: _449  and  _450
REMARK  182  A    between atoms: _453  and  _455
REMARK  183  A    between atoms: _455  and  _456
REMARK  184  A    between atoms: _455  and  _458
REMARK  185  A    between atoms: _458  and  _459
REMARK  186  A    between atoms: _461  and  _463
REMARK  187  A    between atoms: _463  and  _464
REMARK  188  A    between atoms: _466  and  _468
REMARK  189  A    between atoms: _468  and  _469
REMARK  190  A    between atoms: _468  and  _471
REMARK  191  A    between atoms: _471  and  _472
REMARK  192  A    between atoms: _472  and  _774
REMARK  193  A    between atoms: _473  and  _475
REMARK  194  A    between atoms: _475  and  _476
REMARK  195  A    between atoms: _475  and  _478
REMARK  196  A    between atoms: _478  and  _479
REMARK  197  A    between atoms: _484  and  _485
REMARK  198  A    between atoms: _487  and  _489
REMARK  199  A    between atoms: _489  and  _490
REMARK  200  A    between atoms: _489  and  _492
REMARK  201  A    between atoms: _492  and  _493
REMARK  202  A    between atoms: _493  and  _494
REMARK  203  A    between atoms: _499  and  _501
REMARK  204  A    between atoms: _501  and  _502
REMARK  205  A    between atoms: _501  and  _504
REMARK  206  A    between atoms: _504  and  _505
REMARK  207  A    between atoms: _505  and  _506
REMARK  208  A    between atoms: _511  and  _513
REMARK  209  A    between atoms: _513  and  _514
REMARK  210  A    between atoms: _513  and  _516
REMARK  211  A    between atoms: _516  and  _517
REMARK  212  A    between atoms: _522  and  _523
REMARK  213  A    between atoms: _525  and  _527
REMARK  214  A    between atoms: _527  and  _528
REMARK  215  A    between atoms: _531  and  _533
REMARK  216  A    between atoms: _533  and  _534
REMARK  217  A    between atoms: _533  and  _536
REMARK  218  A    between atoms: _536  and  _537
REMARK  219  A    between atoms: _542  and  _543
REMARK  220  A    between atoms: _545  and  _547
REMARK  221  A    between atoms: _547  and  _548
REMARK  222  A    between atoms: _547  and  _550
REMARK  223  A    between atoms: _550  and  _551
REMARK  224  A    between atoms: _556  and  _557
REMARK  225  A    between atoms: _559  and  _561
REMARK  226  A    between atoms: _561  and  _562
REMARK  227  A    between atoms: _561  and  _564
REMARK  228  A    between atoms: _564  and  _565
REMARK  229  A    between atoms: _568  and  _570
REMARK  230  A    between atoms: _570  and  _571
REMARK  231  A    between atoms: _574  and  _576
REMARK  232  A    between atoms: _576  and  _577
REMARK  233  A    between atoms: _580  and  _582
REMARK  234  A    between atoms: _582  and  _583
REMARK  235  A    between atoms: _582  and  _585
REMARK  236  A    between atoms: _585  and  _586
REMARK  237  A    between atoms: _589  and  _591
REMARK  238  A    between atoms: _591  and  _592
REMARK  239  A    between atoms: _591  and  _594
REMARK  240  A    between atoms: _594  and  _595
REMARK  241  A    between atoms: _598  and  _600
REMARK  242  A    between atoms: _600  and  _601
REMARK  243  A    between atoms: _600  and  _603
REMARK  244  A    between atoms: _603  and  _604
REMARK  245  A    between atoms: _607  and  _609
REMARK  246  A    between atoms: _609  and  _610
REMARK  247  A    between atoms: _609  and  _612
REMARK  248  A    between atoms: _612  and  _613
REMARK  249  A    between atoms: _613  and  _614
REMARK  250  A    between atoms: _614  and  _615
REMARK  251  A    between atoms: _615  and  _616
REMARK  252  A    between atoms: _620  and  _622
REMARK  253  A    between atoms: _622  and  _623
REMARK  254  A    between atoms: _622  and  _625
REMARK  255  A    between atoms: _625  and  _626
REMARK  256  A    between atoms: _631  and  _633
REMARK  257  A    between atoms: _633  and  _634
REMARK  258  A    between atoms: _633  and  _636
REMARK  259  A    between atoms: _636  and  _637
REMARK  260  A    between atoms: _637  and  _638
REMARK  261  A    between atoms: _638  and  _639
REMARK  262  A    between atoms: _639  and  _640
REMARK  263  A    between atoms: _644  and  _646
REMARK  264  A    between atoms: _646  and  _647
REMARK  265  A    between atoms: _646  and  _649
REMARK  266  A    between atoms: _649  and  _650
REMARK  267  A    between atoms: _660  and  _662
REMARK  268  A    between atoms: _662  and  _663
REMARK  269  A    between atoms: _666  and  _668
REMARK  270  A    between atoms: _668  and  _669
REMARK  271  A    between atoms: _671  and  _673
REMARK  272  A    between atoms: _673  and  _674
REMARK  273  A    between atoms: _673  and  _676
REMARK  274  A    between atoms: _676  and  _677
REMARK  275  A    between atoms: _677  and  _678
REMARK  276  A    between atoms: _681  and  _683
REMARK  277  A    between atoms: _683  and  _684
REMARK  278  A    between atoms: _687  and  _689
REMARK  279  A    between atoms: _689  and  _690
REMARK  280  A    between atoms: _689  and  _692
REMARK  281  A    between atoms: _692  and  _693
REMARK  282  A    between atoms: _693  and  _694
REMARK  283  A    between atoms: _694  and  _695
REMARK  284  A    between atoms: _704  and  _706
REMARK  285  A    between atoms: _706  and  _707
REMARK  286  A    between atoms: _706  and  _709
REMARK  287  A    between atoms: _709  and  _710
REMARK  288  A    between atoms: _713  and  _715
REMARK  289  A    between atoms: _715  and  _716
REMARK  290  A    between atoms: _715  and  _718
REMARK  291  A    between atoms: _718  and  _719
REMARK  292  A    between atoms: _719  and  _720
REMARK  293  A    between atoms: _720  and  _721
REMARK  294  A    between atoms: _730  and  _732
REMARK  295  A    between atoms: _732  and  _733
REMARK  296  A    between atoms: _736  and  _738
REMARK  297  A    between atoms: _738  and  _739
REMARK  298  A    between atoms: _738  and  _741
REMARK  299  A    between atoms: _741  and  _742
REMARK  300  A    between atoms: _747  and  _748
REMARK  301  A    between atoms: _750  and  _752
REMARK  302  A    between atoms: _752  and  _753
REMARK  303  A    between atoms: _752  and  _755
REMARK  304  A    between atoms: _755  and  _756
REMARK  305  A    between atoms: _759  and  _761
REMARK  306  A    between atoms: _761  and  _762
REMARK  307  A    between atoms: _761  and  _764
REMARK  308  A    between atoms: _764  and  _765
REMARK  309  A    between atoms: _768  and  _770
REMARK  310  A    between atoms: _770  and  _771
REMARK  311  A    between atoms: _770  and  _773
REMARK  312  A    between atoms: _773  and  _774
REMARK  313  A    between atoms: _775  and  _777
REMARK  314  A    between atoms: _777  and  _778
REMARK  315  A    between atoms: _777  and  _780
REMARK  316  A    between atoms: _783  and  _785
REMARK  317  A    between atoms: _785  and  _786
REMARK  318  A    between atoms: _785  and  _788
REMARK  319  A    between atoms: _788  and  _789
REMARK  320  A    between atoms: _789  and  _790
REMARK  321  A    between atoms: _793  and  _795
REMARK  322  A    between atoms: _795  and  _796
REMARK  323  A    between atoms: _795  and  _798
REMARK  324  A    between atoms: _798  and  _799
REMARK  325  A    between atoms: _809  and  _811
REMARK  326  A    between atoms: _811  and  _812
REMARK  327  A    between atoms: _811  and  _814
REMARK  328  A    between atoms: _814  and  _815
REMARK  329  A    between atoms: _818  and  _820
REMARK  330  A    between atoms: _820  and  _821
REMARK  331  A    between atoms: _820  and  _823
REMARK  332  A    between atoms: _823  and  _824
REMARK  333  A    between atoms: _829  and  _830
REMARK                            x       y       z     vdW  Elec       q    Type
REMARK                         _______ _______ _______ _____ _____    ______ ____
ROOT
ATOM      1  O   HOH     1     -21.394   3.502  29.880  0.00  0.00    +0.000 OA
ENDROOT
TORSDOF 0
REMARK  Name = ../refined-set-2016/3p9l/3p9l_pocket.pdb
REMARK  333 active torsions:
REMARK  status: ('A' for Active; 'I' for Inactive)
REMARK    1  A    between atoms: _1  and  _3
REMARK    2  A    between atoms: _3  and  _4
REMARK    3  A    between atoms: _3  and  _6
REMARK    4  A    between atoms: _6  and  _7
REMARK    5  A    between atoms: _10  and  _12
REMARK    6  A    between atoms: _12  and  _13
REMARK    7  A    between atoms: _12  and  _15
REMARK    8  A    between atoms: _15  and  _16
REMARK    9  A    between atoms: _16  and  _17
REMARK   10  A    between atoms: _17  and  _18
REMARK   11  A    between atoms: _27  and  _29
REMARK   12  A    between atoms: _29  and  _30
REMARK   13  A    between atoms: _29  and  _32
REMARK   14  A    between atoms: _32  and  _33
REMARK   15  A    between atoms: _38  and  _39
REMARK   16  A    between atoms: _41  and  _43
REMARK   17  A    between atoms: _43  and  _44
REMARK   18  A    between atoms: _43  and  _46
REMARK   19  A    between atoms: _46  and  _47
REMARK   20  A    between atoms: _53  and  _55
REMARK   21  A    between atoms: _55  and  _56
REMARK   22  A    between atoms: _55  and  _58
REMARK   23  A    between atoms: _61  and  _63
REMARK   24  A    between atoms: _63  and  _64
REMARK   25  A    between atoms: _63  and  _66
REMARK   26  A    between atoms: _66  and  _67
REMARK   27  A    between atoms: _70  and  _72
REMARK   28  A    between atoms: _72  and  _73
REMARK   29  A    between atoms: _72  and  _75
REMARK   30  A    between atoms: _75  and  _76
REMARK   31  A    between atoms: _81  and  _82
REMARK   32  A    between atoms: _84  and  _86
REMARK   33  A    between atoms: _86  and  _87
REMARK   34  A    between atoms: _86  and  _89
REMARK   35  A    between atoms: _89  and  _90
REMARK   36  A    between atoms: _90  and  _91
REMARK   37  A    between atoms: _93  and  _95
REMARK   38  A    between atoms: _95  and  _96
REMARK   39  A    between atoms: _95  and  _98
REMARK   40  A    between atoms: _98  and  _99
REMARK   41  A    between atoms: _99  and  _100
REMARK   42  A    between atoms: _103  and  _105
REMARK   43  A    between atoms: _105  and  _106
REMARK   44  A    between atoms: _105  and  _108
REMARK   45  A    between atoms: _111  and  _113
REMARK   46  A    between atoms: _113  and  _114
REMARK   47  A    between atoms: _116  and  _118
REMARK   48  A    between atoms: _118  and  _119
REMARK   49  A    between atoms: _118  and  _121
REMARK   50  A    between atoms: _124  and  _126
REMARK   51  A    between atoms: _126  and  _127
REMARK   52  A    between atoms: _126  and  _129
REMARK   53  A    between atoms: _129  and  _130
REMARK   54  A    between atoms: _136  and  _138
REMARK   55  A    between atoms: _138  and  _139
REMARK   56  A    between atoms: _138  and  _141
REMARK   57  A    between atoms: _144  and  _146
REMARK   58  A    between atoms: _146  and  _147
REMARK   59  A    between atoms: _146  and  _149
REMARK   60  A    between atoms: _149  and  _150
REMARK   61  A    between atoms: _156  and  _158
REMARK   62  A    between atoms: _158  and  _159
REMARK   63  A    between atoms: _158  and  _161
REMARK   64  A    between atoms: _161  and  _162
REMARK   65  A    between atoms: _167  and  _168
REMARK   66  A    between atoms: _170  and  _172
REMARK   67  A    between atoms: _172  and  _173
REMARK   68  A    between atoms: _172  and  _175
REMARK   69  A    between atoms: _175  and  _176
REMARK   70  A    between atoms: _176  and  _177
REMARK   71  A    between atoms: _179  and  _181
REMARK   72  A    between atoms: _181  and  _182
REMARK   73  A    between atoms: _181  and  _184
REMARK   74  A    between atoms: _184  and  _185
REMARK   75  A    between atoms: _190  and  _191
REMARK   76  A    between atoms: _193  and  _195
REMARK   77  A    between atoms: _195  and  _196
REMARK   78  A    between atoms: _195  and  _198
REMARK   79  A    between atoms: _198  and  _199
REMARK   80  A    between atoms: _199  and  _200
REMARK   81  A    between atoms: _200  and  _201
REMARK   82  A    between atoms: _210  and  _212
REMARK   83  A    between atoms: _212  and  _213
REMARK   84  A    between atoms: _212  and  _215
REMARK   85  A    between atoms: _215  and  _216
REMARK   86  A    between atoms: _216  and  _217
REMARK   87  A    between atoms: _220  and  _222
REMARK   88  A    between atoms: _222  and  _223
REMARK   89  A    between atoms: _222  and  _225
REMARK   90  A    between atoms: _225  and  _226
REMARK   91  A    between atoms: _226  and  _227
REMARK   92  A    between atoms: _232  and  _234
REMARK   93  A    between atoms: _234  and  _235
REMARK   94  A    between atoms: _234  and  _237
REMARK   95  A    between atoms: _237  and  _238
REMARK   96  A    between atoms: _238  and  _239
REMARK   97  A    between atoms: _239  and  _240
REMARK   98  A    between atoms: _240  and  _241
REMARK   99  A    between atoms: _245  and  _247
REMARK  100  A    between atoms: _247  and  _248
REMARK  101  A    between atoms: _251  and  _253
REMARK  102  A    between atoms: _253  and  _254
REMARK  103  A    between atoms: _256  and  _258
REMARK  104  A    between atoms: _258  and  _259
REMARK  105  A    between atoms: _258  and  _261
REMARK  106  A    between atoms: _261  and  _262
REMARK  107  A    between atoms: _267  and  _269
REMARK  108  A    between atoms: _269  and  _270
REMARK  109  A    between atoms: _269  and  _272
REMARK  110  A    between atoms: _272  and  _273
REMARK  111  A    between atoms: _273  and  _274
REMARK  112  A    between atoms: _277  and  _279
REMARK  113  A    between atoms: _279  and  _280
REMARK  114  A    between atoms: _279  and  _282
REMARK  115  A    between atoms: _282  and  _283
REMARK  116  A    between atoms: _283  and  _284
REMARK  117  A    between atoms: _289  and  _291
REMARK  118  A    between atoms: _291  and  _292
REMARK  119  A    between atoms: _291  and  _294
REMARK  120  A    between atoms: _294  and  _295
REMARK  121  A    between atoms: _297  and  _299
REMARK  122  A    between atoms: _299  and  _300
REMARK  123  A    between atoms: _299  and  _302
REMARK  124  A    between atoms: _302  and  _303
REMARK  125  A    between atoms: _309  and  _311
REMARK  126  A    between atoms: _311  and  _312
REMARK  127  A    between atoms: _311  and  _314
REMARK  128  A    between atoms: _314  and  _315
REMARK  129  A    between atoms: _315  and  _316
REMARK  130  A    between atoms: _316  and  _317
REMARK  131  A    between atoms: _326  and  _328
REMARK  132  A    between atoms: _328  and  _329
REMARK  133  A    between atoms: _328  and  _331
REMARK  134  A    between atoms: _334  and  _336
REMARK  135  A    between atoms: _336  and  _337
REMARK  136  A    between atoms: _336  and  _339
REMARK  137  A    between atoms: _339  and  _340
REMARK  138  A    between atoms: _343  and  _345
REMARK  139  A    between atoms: _345  and  _346
REMARK  140  A    between atoms: _345  and  _348
REMARK  141  A    between atoms: _348  and  _349
REMARK  142  A    between atoms: _352  and  _354
REMARK  143  A    between atoms: _354  and  _355
REMARK  144  A    between atoms: _354  and  _357
REMARK  145  A    between atoms: _357  and  _358
REMARK  146  A    between atoms: _358  and  _359
REMARK  147  A    between atoms: _359  and  _360
REMARK  148  A    between atoms: _369  and  _371
REMARK  149  A    between atoms: _371  and  _372
REMARK  150  A    between atoms: _371  and  _374
REMARK  151  A    between atoms: _374  and  _375
REMARK  152  A    between atoms: _378  and  _380
REMARK  153  A    between atoms: _380  and  _381
REMARK  154  A    between atoms: _380  and  _383
REMARK  155  A    between atoms: _383  and  _384
REMARK  156  A    between atoms: _387  and  _389
REMARK  157  A    between atoms: _389  and  _390
REMARK  158  A    between atoms: _389  and  _392
REMARK  159  A    between atoms: _392  and  _393
REMARK  160  A    between atoms: _398  and  _399
REMARK  161  A    between atoms: _401  and  _403
REMARK  162  A    between atoms: _403  and  _404
REMARK  163  A    between atoms: _403  and  _406
REMARK  164  A    between atoms: _406  and  _407
REMARK  165  A    between atoms: _412  and  _413
REMARK  166  A    between atoms: _415  and  _417
REMARK  167  A    between atoms: _417  and  _418
REMARK  168  A    between atoms: _417  and  _420
REMARK  169  A    between atoms: _420  and  _421
REMARK  170  A    between atoms: _424  and  _426
REMARK  171  A    between atoms: _426  and  _427
REMARK  172  A    between atoms: _426  and  _429
REMARK  173  A    between atoms: _429  and  _430
REMARK  174  A    between atoms: _430  and  _431
REMARK  175  A    between atoms: _436  and  _438
REMARK  176  A    between atoms: _438  and  _439
REMARK  177  A    between atoms: _438  and  _441
REMARK  178  A    between atoms: _444  and  _446
REMARK  179  A    between atoms: _446  and  _447
REMARK  180  A    between atoms: _446  and  _449
REMARK  181  A    between atoms: _449  and  _450
REMARK  182  A    between atoms: _453  and  _455
REMARK  183  A    between atoms: _455  and  _456
REMARK  184  A    between atoms: _455  and  _458
REMARK  185  A    between atoms: _458  and  _459
REMARK  186  A    between atoms: _461  and  _463
REMARK  187  A    between atoms: _463  and  _464
REMARK  188  A    between atoms: _466  and  _468
REMARK  189  A    between atoms: _468  and  _469
REMARK  190  A    between atoms: _468  and  _471
REMARK  191  A    between atoms: _471  and  _472
REMARK  192  A    between atoms: _472  and  _774
REMARK  193  A    between atoms: _473  and  _475
REMARK  194  A    between atoms: _475  and  _476
REMARK  195  A    between atoms: _475  and  _478
REMARK  196  A    between atoms: _478  and  _479
REMARK  197  A    between atoms: _484  and  _485
REMARK  198  A    between atoms: _487  and  _489
REMARK  199  A    between atoms: _489  and  _490
REMARK  200  A    between atoms: _489  and  _492
REMARK  201  A    between atoms: _492  and  _493
REMARK  202  A    between atoms: _493  and  _494
REMARK  203  A    between atoms: _499  and  _501
REMARK  204  A    between atoms: _501  and  _502
REMARK  205  A    between atoms: _501  and  _504
REMARK  206  A    between atoms: _504  and  _505
REMARK  207  A    between atoms: _505  and  _506
REMARK  208  A    between atoms: _511  and  _513
REMARK  209  A    between atoms: _513  and  _514
REMARK  210  A    between atoms: _513  and  _516
REMARK  211  A    between atoms: _516  and  _517
REMARK  212  A    between atoms: _522  and  _523
REMARK  213  A    between atoms: _525  and  _527
REMARK  214  A    between atoms: _527  and  _528
REMARK  215  A    between atoms: _531  and  _533
REMARK  216  A    between atoms: _533  and  _534
REMARK  217  A    between atoms: _533  and  _536
REMARK  218  A    between atoms: _536  and  _537
REMARK  219  A    between atoms: _542  and  _543
REMARK  220  A    between atoms: _545  and  _547
REMARK  221  A    between atoms: _547  and  _548
REMARK  222  A    between atoms: _547  and  _550
REMARK  223  A    between atoms: _550  and  _551
REMARK  224  A    between atoms: _556  and  _557
REMARK  225  A    between atoms: _559  and  _561
REMARK  226  A    between atoms: _561  and  _562
REMARK  227  A    between atoms: _561  and  _564
REMARK  228  A    between atoms: _564  and  _565
REMARK  229  A    between atoms: _568  and  _570
REMARK  230  A    between atoms: _570  and  _571
REMARK  231  A    between atoms: _574  and  _576
REMARK  232  A    between atoms: _576  and  _577
REMARK  233  A    between atoms: _580  and  _582
REMARK  234  A    between atoms: _582  and  _583
REMARK  235  A    between atoms: _582  and  _585
REMARK  236  A    between atoms: _585  and  _586
REMARK  237  A    between atoms: _589  and  _591
REMARK  238  A    between atoms: _591  and  _592
REMARK  239  A    between atoms: _591  and  _594
REMARK  240  A    between atoms: _594  and  _595
REMARK  241  A    between atoms: _598  and  _600
REMARK  242  A    between atoms: _600  and  _601
REMARK  243  A    between atoms: _600  and  _603
REMARK  244  A    between atoms: _603  and  _604
REMARK  245  A    between atoms: _607  and  _609
REMARK  246  A    between atoms: _609  and  _610
REMARK  247  A    between atoms: _609  and  _612
REMARK  248  A    between atoms: _612  and  _613
REMARK  249  A    between atoms: _613  and  _614
REMARK  250  A    between atoms: _614  and  _615
REMARK  251  A    between atoms: _615  and  _616
REMARK  252  A    between atoms: _620  and  _622
REMARK  253  A    between atoms: _622  and  _623
REMARK  254  A    between atoms: _622  and  _625
REMARK  255  A    between atoms: _625  and  _626
REMARK  256  A    between atoms: _631  and  _633
REMARK  257  A    between atoms: _633  and  _634
REMARK  258  A    between atoms: _633  and  _636
REMARK  259  A    between atoms: _636  and  _637
REMARK  260  A    between atoms: _637  and  _638
REMARK  261  A    between atoms: _638  and  _639
REMARK  262  A    between atoms: _639  and  _640
REMARK  263  A    between atoms: _644  and  _646
REMARK  264  A    between atoms: _646  and  _647
REMARK  265  A    between atoms: _646  and  _649
REMARK  266  A    between atoms: _649  and  _650
REMARK  267  A    between atoms: _660  and  _662
REMARK  268  A    between atoms: _662  and  _663
REMARK  269  A    between atoms: _666  and  _668
REMARK  270  A    between atoms: _668  and  _669
REMARK  271  A    between atoms: _671  and  _673
REMARK  272  A    between atoms: _673  and  _674
REMARK  273  A    between atoms: _673  and  _676
REMARK  274  A    between atoms: _676  and  _677
REMARK  275  A    between atoms: _677  and  _678
REMARK  276  A    between atoms: _681  and  _683
REMARK  277  A    between atoms: _683  and  _684
REMARK  278  A    between atoms: _687  and  _689
REMARK  279  A    between atoms: _689  and  _690
REMARK  280  A    between atoms: _689  and  _692
REMARK  281  A    between atoms: _692  and  _693
REMARK  282  A    between atoms: _693  and  _694
REMARK  283  A    between atoms: _694  and  _695
REMARK  284  A    between atoms: _704  and  _706
REMARK  285  A    between atoms: _706  and  _707
REMARK  286  A    between atoms: _706  and  _709
REMARK  287  A    between atoms: _709  and  _710
REMARK  288  A    between atoms: _713  and  _715
REMARK  289  A    between atoms: _715  and  _716
REMARK  290  A    between atoms: _715  and  _718
REMARK  291  A    between atoms: _718  and  _719
REMARK  292  A    between atoms: _719  and  _720
REMARK  293  A    between atoms: _720  and  _721
REMARK  294  A    between atoms: _730  and  _732
REMARK  295  A    between atoms: _732  and  _733
REMARK  296  A    between atoms: _736  and  _738
REMARK  297  A    between atoms: _738  and  _739
REMARK  298  A    between atoms: _738  and  _741
REMARK  299  A    between atoms: _741  and  _742
REMARK  300  A    between atoms: _747  and  _748
REMARK  301  A    between atoms: _750  and  _752
REMARK  302  A    between atoms: _752  and  _753
REMARK  303  A    between atoms: _752  and  _755
REMARK  304  A    between atoms: _755  and  _756
REMARK  305  A    between atoms: _759  and  _761
REMARK  306  A    between atoms: _761  and  _762
REMARK  307  A    between atoms: _761  and  _764
REMARK  308  A    between atoms: _764  and  _765
REMARK  309  A    between atoms: _768  and  _770
REMARK  310  A    between atoms: _770  and  _771
REMARK  311  A    between atoms: _770  and  _773
REMARK  312  A    between atoms: _773  and  _774
REMARK  313  A    between atoms: _775  and  _777
REMARK  314  A    between atoms: _777  and  _778
REMARK  315  A    between atoms: _777  and  _780
REMARK  316  A    between atoms: _783  and  _785
REMARK  317  A    between atoms: _785  and  _786
REMARK  318  A    between atoms: _785  and  _788
REMARK  319  A    between atoms: _788  and  _789
REMARK  320  A    between atoms: _789  and  _790
REMARK  321  A    between atoms: _793  and  _795
REMARK  322  A    between atoms: _795  and  _796
REMARK  323  A    between atoms: _795  and  _798
REMARK  324  A    between atoms: _798  and  _799
REMARK  325  A    between atoms: _809  and  _811
REMARK  326  A    between atoms: _811  and  _812
REMARK  327  A    between atoms: _811  and  _814
REMARK  328  A    between atoms: _814  and  _815
REMARK  329  A    between atoms: _818  and  _820
REMARK  330  A    between atoms: _820  and  _821
REMARK  331  A    between atoms: _820  and  _823
REMARK  332  A    between atoms: _823  and  _824
REMARK  333  A    between atoms: _829  and  _830
REMARK                            x       y       z     vdW  Elec       q    Type
REMARK                         _______ _______ _______ _____ _____    ______ ____
ROOT
ATOM      1  O   HOH     1     -25.559   9.826  26.379  0.00  0.00    +0.000 OA
ENDROOT
TORSDOF 0
REMARK  Name = ../refined-set-2016/3p9l/3p9l_pocket.pdb
REMARK  333 active torsions:
REMARK  status: ('A' for Active; 'I' for Inactive)
REMARK    1  A    between atoms: _1  and  _3
REMARK    2  A    between atoms: _3  and  _4
REMARK    3  A    between atoms: _3  and  _6
REMARK    4  A    between atoms: _6  and  _7
REMARK    5  A    between atoms: _10  and  _12
REMARK    6  A    between atoms: _12  and  _13
REMARK    7  A    between atoms: _12  and  _15
REMARK    8  A    between atoms: _15  and  _16
REMARK    9  A    between atoms: _16  and  _17
REMARK   10  A    between atoms: _17  and  _18
REMARK   11  A    between atoms: _27  and  _29
REMARK   12  A    between atoms: _29  and  _30
REMARK   13  A    between atoms: _29  and  _32
REMARK   14  A    between atoms: _32  and  _33
REMARK   15  A    between atoms: _38  and  _39
REMARK   16  A    between atoms: _41  and  _43
REMARK   17  A    between atoms: _43  and  _44
REMARK   18  A    between atoms: _43  and  _46
REMARK   19  A    between atoms: _46  and  _47
REMARK   20  A    between atoms: _53  and  _55
REMARK   21  A    between atoms: _55  and  _56
REMARK   22  A    between atoms: _55  and  _58
REMARK   23  A    between atoms: _61  and  _63
REMARK   24  A    between atoms: _63  and  _64
REMARK   25  A    between atoms: _63  and  _66
REMARK   26  A    between atoms: _66  and  _67
REMARK   27  A    between atoms: _70  and  _72
REMARK   28  A    between atoms: _72  and  _73
REMARK   29  A    between atoms: _72  and  _75
REMARK   30  A    between atoms: _75  and  _76
REMARK   31  A    between atoms: _81  and  _82
REMARK   32  A    between atoms: _84  and  _86
REMARK   33  A    between atoms: _86  and  _87
REMARK   34  A    between atoms: _86  and  _89
REMARK   35  A    between atoms: _89  and  _90
REMARK   36  A    between atoms: _90  and  _91
REMARK   37  A    between atoms: _93  and  _95
REMARK   38  A    between atoms: _95  and  _96
REMARK   39  A    between atoms: _95  and  _98
REMARK   40  A    between atoms: _98  and  _99
REMARK   41  A    between atoms: _99  and  _100
REMARK   42  A    between atoms: _103  and  _105
REMARK   43  A    between atoms: _105  and  _106
REMARK   44  A    between atoms: _105  and  _108
REMARK   45  A    between atoms: _111  and  _113
REMARK   46  A    between atoms: _113  and  _114
REMARK   47  A    between atoms: _116  and  _118
REMARK   48  A    between atoms: _118  and  _119
REMARK   49  A    between atoms: _118  and  _121
REMARK   50  A    between atoms: _124  and  _126
REMARK   51  A    between atoms: _126  and  _127
REMARK   52  A    between atoms: _126  and  _129
REMARK   53  A    between atoms: _129  and  _130
REMARK   54  A    between atoms: _136  and  _138
REMARK   55  A    between atoms: _138  and  _139
REMARK   56  A    between atoms: _138  and  _141
REMARK   57  A    between atoms: _144  and  _146
REMARK   58  A    between atoms: _146  and  _147
REMARK   59  A    between atoms: _146  and  _149
REMARK   60  A    between atoms: _149  and  _150
REMARK   61  A    between atoms: _156  and  _158
REMARK   62  A    between atoms: _158  and  _159
REMARK   63  A    between atoms: _158  and  _161
REMARK   64  A    between atoms: _161  and  _162
REMARK   65  A    between atoms: _167  and  _168
REMARK   66  A    between atoms: _170  and  _172
REMARK   67  A    between atoms: _172  and  _173
REMARK   68  A    between atoms: _172  and  _175
REMARK   69  A    between atoms: _175  and  _176
REMARK   70  A    between atoms: _176  and  _177
REMARK   71  A    between atoms: _179  and  _181
REMARK   72  A    between atoms: _181  and  _182
REMARK   73  A    between atoms: _181  and  _184
REMARK   74  A    between atoms: _184  and  _185
REMARK   75  A    between atoms: _190  and  _191
REMARK   76  A    between atoms: _193  and  _195
REMARK   77  A    between atoms: _195  and  _196
REMARK   78  A    between atoms: _195  and  _198
REMARK   79  A    between atoms: _198  and  _199
REMARK   80  A    between atoms: _199  and  _200
REMARK   81  A    between atoms: _200  and  _201
REMARK   82  A    between atoms: _210  and  _212
REMARK   83  A    between atoms: _212  and  _213
REMARK   84  A    between atoms: _212  and  _215
REMARK   85  A    between atoms: _215  and  _216
REMARK   86  A    between atoms: _216  and  _217
REMARK   87  A    between atoms: _220  and  _222
REMARK   88  A    between atoms: _222  and  _223
REMARK   89  A    between atoms: _222  and  _225
REMARK   90  A    between atoms: _225  and  _226
REMARK   91  A    between atoms: _226  and  _227
REMARK   92  A    between atoms: _232  and  _234
REMARK   93  A    between atoms: _234  and  _235
REMARK   94  A    between atoms: _234  and  _237
REMARK   95  A    between atoms: _237  and  _238
REMARK   96  A    between atoms: _238  and  _239
REMARK   97  A    between atoms: _239  and  _240
REMARK   98  A    between atoms: _240  and  _241
REMARK   99  A    between atoms: _245  and  _247
REMARK  100  A    between atoms: _247  and  _248
REMARK  101  A    between atoms: _251  and  _253
REMARK  102  A    between atoms: _253  and  _254
REMARK  103  A    between atoms: _256  and  _258
REMARK  104  A    between atoms: _258  and  _259
REMARK  105  A    between atoms: _258  and  _261
REMARK  106  A    between atoms: _261  and  _262
REMARK  107  A    between atoms: _267  and  _269
REMARK  108  A    between atoms: _269  and  _270
REMARK  109  A    between atoms: _269  and  _272
REMARK  110  A    between atoms: _272  and  _273
REMARK  111  A    between atoms: _273  and  _274
REMARK  112  A    between atoms: _277  and  _279
REMARK  113  A    between atoms: _279  and  _280
REMARK  114  A    between atoms: _279  and  _282
REMARK  115  A    between atoms: _282  and  _283
REMARK  116  A    between atoms: _283  and  _284
REMARK  117  A    between atoms: _289  and  _291
REMARK  118  A    between atoms: _291  and  _292
REMARK  119  A    between atoms: _291  and  _294
REMARK  120  A    between atoms: _294  and  _295
REMARK  121  A    between atoms: _297  and  _299
REMARK  122  A    between atoms: _299  and  _300
REMARK  123  A    between atoms: _299  and  _302
REMARK  124  A    between atoms: _302  and  _303
REMARK  125  A    between atoms: _309  and  _311
REMARK  126  A    between atoms: _311  and  _312
REMARK  127  A    between atoms: _311  and  _314
REMARK  128  A    between atoms: _314  and  _315
REMARK  129  A    between atoms: _315  and  _316
REMARK  130  A    between atoms: _316  and  _317
REMARK  131  A    between atoms: _326  and  _328
REMARK  132  A    between atoms: _328  and  _329
REMARK  133  A    between atoms: _328  and  _331
REMARK  134  A    between atoms: _334  and  _336
REMARK  135  A    between atoms: _336  and  _337
REMARK  136  A    between atoms: _336  and  _339
REMARK  137  A    between atoms: _339  and  _340
REMARK  138  A    between atoms: _343  and  _345
REMARK  139  A    between atoms: _345  and  _346
REMARK  140  A    between atoms: _345  and  _348
REMARK  141  A    between atoms: _348  and  _349
REMARK  142  A    between atoms: _352  and  _354
REMARK  143  A    between atoms: _354  and  _355
REMARK  144  A    between atoms: _354  and  _357
REMARK  145  A    between atoms: _357  and  _358
REMARK  146  A    between atoms: _358  and  _359
REMARK  147  A    between atoms: _359  and  _360
REMARK  148  A    between atoms: _369  and  _371
REMARK  149  A    between atoms: _371  and  _372
REMARK  150  A    between atoms: _371  and  _374
REMARK  151  A    between atoms: _374  and  _375
REMARK  152  A    between atoms: _378  and  _380
REMARK  153  A    between atoms: _380  and  _381
REMARK  154  A    between atoms: _380  and  _383
REMARK  155  A    between atoms: _383  and  _384
REMARK  156  A    between atoms: _387  and  _389
REMARK  157  A    between atoms: _389  and  _390
REMARK  158  A    between atoms: _389  and  _392
REMARK  159  A    between atoms: _392  and  _393
REMARK  160  A    between atoms: _398  and  _399
REMARK  161  A    between atoms: _401  and  _403
REMARK  162  A    between atoms: _403  and  _404
REMARK  163  A    between atoms: _403  and  _406
REMARK  164  A    between atoms: _406  and  _407
REMARK  165  A    between atoms: _412  and  _413
REMARK  166  A    between atoms: _415  and  _417
REMARK  167  A    between atoms: _417  and  _418
REMARK  168  A    between atoms: _417  and  _420
REMARK  169  A    between atoms: _420  and  _421
REMARK  170  A    between atoms: _424  and  _426
REMARK  171  A    between atoms: _426  and  _427
REMARK  172  A    between atoms: _426  and  _429
REMARK  173  A    between atoms: _429  and  _430
REMARK  174  A    between atoms: _430  and  _431
REMARK  175  A    between atoms: _436  and  _438
REMARK  176  A    between atoms: _438  and  _439
REMARK  177  A    between atoms: _438  and  _441
REMARK  178  A    between atoms: _444  and  _446
REMARK  179  A    between atoms: _446  and  _447
REMARK  180  A    between atoms: _446  and  _449
REMARK  181  A    between atoms: _449  and  _450
REMARK  182  A    between atoms: _453  and  _455
REMARK  183  A    between atoms: _455  and  _456
REMARK  184  A    between atoms: _455  and  _458
REMARK  185  A    between atoms: _458  and  _459
REMARK  186  A    between atoms: _461  and  _463
REMARK  187  A    between atoms: _463  and  _464
REMARK  188  A    between atoms: _466  and  _468
REMARK  189  A    between atoms: _468  and  _469
REMARK  190  A    between atoms: _468  and  _471
REMARK  191  A    between atoms: _471  and  _472
REMARK  192  A    between atoms: _472  and  _774
REMARK  193  A    between atoms: _473  and  _475
REMARK  194  A    between atoms: _475  and  _476
REMARK  195  A    between atoms: _475  and  _478
REMARK  196  A    between atoms: _478  and  _479
REMARK  197  A    between atoms: _484  and  _485
REMARK  198  A    between atoms: _487  and  _489
REMARK  199  A    between atoms: _489  and  _490
REMARK  200  A    between atoms: _489  and  _492
REMARK  201  A    between atoms: _492  and  _493
REMARK  202  A    between atoms: _493  and  _494
REMARK  203  A    between atoms: _499  and  _501
REMARK  204  A    between atoms: _501  and  _502
REMARK  205  A    between atoms: _501  and  _504
REMARK  206  A    between atoms: _504  and  _505
REMARK  207  A    between atoms: _505  and  _506
REMARK  208  A    between atoms: _511  and  _513
REMARK  209  A    between atoms: _513  and  _514
REMARK  210  A    between atoms: _513  and  _516
REMARK  211  A    between atoms: _516  and  _517
REMARK  212  A    between atoms: _522  and  _523
REMARK  213  A    between atoms: _525  and  _527
REMARK  214  A    between atoms: _527  and  _528
REMARK  215  A    between atoms: _531  and  _533
REMARK  216  A    between atoms: _533  and  _534
REMARK  217  A    between atoms: _533  and  _536
REMARK  218  A    between atoms: _536  and  _537
REMARK  219  A    between atoms: _542  and  _543
REMARK  220  A    between atoms: _545  and  _547
REMARK  221  A    between atoms: _547  and  _548
REMARK  222  A    between atoms: _547  and  _550
REMARK  223  A    between atoms: _550  and  _551
REMARK  224  A    between atoms: _556  and  _557
REMARK  225  A    between atoms: _559  and  _561
REMARK  226  A    between atoms: _561  and  _562
REMARK  227  A    between atoms: _561  and  _564
REMARK  228  A    between atoms: _564  and  _565
REMARK  229  A    between atoms: _568  and  _570
REMARK  230  A    between atoms: _570  and  _571
REMARK  231  A    between atoms: _574  and  _576
REMARK  232  A    between atoms: _576  and  _577
REMARK  233  A    between atoms: _580  and  _582
REMARK  234  A    between atoms: _582  and  _583
REMARK  235  A    between atoms: _582  and  _585
REMARK  236  A    between atoms: _585  and  _586
REMARK  237  A    between atoms: _589  and  _591
REMARK  238  A    between atoms: _591  and  _592
REMARK  239  A    between atoms: _591  and  _594
REMARK  240  A    between atoms: _594  and  _595
REMARK  241  A    between atoms: _598  and  _600
REMARK  242  A    between atoms: _600  and  _601
REMARK  243  A    between atoms: _600  and  _603
REMARK  244  A    between atoms: _603  and  _604
REMARK  245  A    between atoms: _607  and  _609
REMARK  246  A    between atoms: _609  and  _610
REMARK  247  A    between atoms: _609  and  _612
REMARK  248  A    between atoms: _612  and  _613
REMARK  249  A    between atoms: _613  and  _614
REMARK  250  A    between atoms: _614  and  _615
REMARK  251  A    between atoms: _615  and  _616
REMARK  252  A    between atoms: _620  and  _622
REMARK  253  A    between atoms: _622  and  _623
REMARK  254  A    between atoms: _622  and  _625
REMARK  255  A    between atoms: _625  and  _626
REMARK  256  A    between atoms: _631  and  _633
REMARK  257  A    between atoms: _633  and  _634
REMARK  258  A    between atoms: _633  and  _636
REMARK  259  A    between atoms: _636  and  _637
REMARK  260  A    between atoms: _637  and  _638
REMARK  261  A    between atoms: _638  and  _639
REMARK  262  A    between atoms: _639  and  _640
REMARK  263  A    between atoms: _644  and  _646
REMARK  264  A    between atoms: _646  and  _647
REMARK  265  A    between atoms: _646  and  _649
REMARK  266  A    between atoms: _649  and  _650
REMARK  267  A    between atoms: _660  and  _662
REMARK  268  A    between atoms: _662  and  _663
REMARK  269  A    between atoms: _666  and  _668
REMARK  270  A    between atoms: _668  and  _669
REMARK  271  A    between atoms: _671  and  _673
REMARK  272  A    between atoms: _673  and  _674
REMARK  273  A    between atoms: _673  and  _676
REMARK  274  A    between atoms: _676  and  _677
REMARK  275  A    between atoms: _677  and  _678
REMARK  276  A    between atoms: _681  and  _683
REMARK  277  A    between atoms: _683  and  _684
REMARK  278  A    between atoms: _687  and  _689
REMARK  279  A    between atoms: _689  and  _690
REMARK  280  A    between atoms: _689  and  _692
REMARK  281  A    between atoms: _692  and  _693
REMARK  282  A    between atoms: _693  and  _694
REMARK  283  A    between atoms: _694  and  _695
REMARK  284  A    between atoms: _704  and  _706
REMARK  285  A    between atoms: _706  and  _707
REMARK  286  A    between atoms: _706  and  _709
REMARK  287  A    between atoms: _709  and  _710
REMARK  288  A    between atoms: _713  and  _715
REMARK  289  A    between atoms: _715  and  _716
REMARK  290  A    between atoms: _715  and  _718
REMARK  291  A    between atoms: _718  and  _719
REMARK  292  A    between atoms: _719  and  _720
REMARK  293  A    between atoms: _720  and  _721
REMARK  294  A    between atoms: _730  and  _732
REMARK  295  A    between atoms: _732  and  _733
REMARK  296  A    between atoms: _736  and  _738
REMARK  297  A    between atoms: _738  and  _739
REMARK  298  A    between atoms: _738  and  _741
REMARK  299  A    between atoms: _741  and  _742
REMARK  300  A    between atoms: _747  and  _748
REMARK  301  A    between atoms: _750  and  _752
REMARK  302  A    between atoms: _752  and  _753
REMARK  303  A    between atoms: _752  and  _755
REMARK  304  A    between atoms: _755  and  _756
REMARK  305  A    between atoms: _759  and  _761
REMARK  306  A    between atoms: _761  and  _762
REMARK  307  A    between atoms: _761  and  _764
REMARK  308  A    between atoms: _764  and  _765
REMARK  309  A    between atoms: _768  and  _770
REMARK  310  A    between atoms: _770  and  _771
REMARK  311  A    between atoms: _770  and  _773
REMARK  312  A    between atoms: _773  and  _774
REMARK  313  A    between atoms: _775  and  _777
REMARK  314  A    between atoms: _777  and  _778
REMARK  315  A    between atoms: _777  and  _780
REMARK  316  A    between atoms: _783  and  _785
REMARK  317  A    between atoms: _785  and  _786
REMARK  318  A    between atoms: _785  and  _788
REMARK  319  A    between atoms: _788  and  _789
REMARK  320  A    between atoms: _789  and  _790
REMARK  321  A    between atoms: _793  and  _795
REMARK  322  A    between atoms: _795  and  _796
REMARK  323  A    between atoms: _795  and  _798
REMARK  324  A    between atoms: _798  and  _799
REMARK  325  A    between atoms: _809  and  _811
REMARK  326  A    between atoms: _811  and  _812
REMARK  327  A    between atoms: _811  and  _814
REMARK  328  A    between atoms: _814  and  _815
REMARK  329  A    between atoms: _818  and  _820
REMARK  330  A    between atoms: _820  and  _821
REMARK  331  A    between atoms: _820  and  _823
REMARK  332  A    between atoms: _823  and  _824
REMARK  333  A    between atoms: _829  and  _830
REMARK                            x       y       z     vdW  Elec       q    Type
REMARK                         _______ _______ _______ _____ _____    ______ ____
ROOT
ATOM      1  O   HOH     1     -22.168   9.664  30.053  0.00  0.00    +0.000 OA
ENDROOT
TORSDOF 0
REMARK  Name = ../refined-set-2016/3p9l/3p9l_pocket.pdb
REMARK  333 active torsions:
REMARK  status: ('A' for Active; 'I' for Inactive)
REMARK    1  A    between atoms: _1  and  _3
REMARK    2  A    between atoms: _3  and  _4
REMARK    3  A    between atoms: _3  and  _6
REMARK    4  A    between atoms: _6  and  _7
REMARK    5  A    between atoms: _10  and  _12
REMARK    6  A    between atoms: _12  and  _13
REMARK    7  A    between atoms: _12  and  _15
REMARK    8  A    between atoms: _15  and  _16
REMARK    9  A    between atoms: _16  and  _17
REMARK   10  A    between atoms: _17  and  _18
REMARK   11  A    between atoms: _27  and  _29
REMARK   12  A    between atoms: _29  and  _30
REMARK   13  A    between atoms: _29  and  _32
REMARK   14  A    between atoms: _32  and  _33
REMARK   15  A    between atoms: _38  and  _39
REMARK   16  A    between atoms: _41  and  _43
REMARK   17  A    between atoms: _43  and  _44
REMARK   18  A    between atoms: _43  and  _46
REMARK   19  A    between atoms: _46  and  _47
REMARK   20  A    between atoms: _53  and  _55
REMARK   21  A    between atoms: _55  and  _56
REMARK   22  A    between atoms: _55  and  _58
REMARK   23  A    between atoms: _61  and  _63
REMARK   24  A    between atoms: _63  and  _64
REMARK   25  A    between atoms: _63  and  _66
REMARK   26  A    between atoms: _66  and  _67
REMARK   27  A    between atoms: _70  and  _72
REMARK   28  A    between atoms: _72  and  _73
REMARK   29  A    between atoms: _72  and  _75
REMARK   30  A    between atoms: _75  and  _76
REMARK   31  A    between atoms: _81  and  _82
REMARK   32  A    between atoms: _84  and  _86
REMARK   33  A    between atoms: _86  and  _87
REMARK   34  A    between atoms: _86  and  _89
REMARK   35  A    between atoms: _89  and  _90
REMARK   36  A    between atoms: _90  and  _91
REMARK   37  A    between atoms: _93  and  _95
REMARK   38  A    between atoms: _95  and  _96
REMARK   39  A    between atoms: _95  and  _98
REMARK   40  A    between atoms: _98  and  _99
REMARK   41  A    between atoms: _99  and  _100
REMARK   42  A    between atoms: _103  and  _105
REMARK   43  A    between atoms: _105  and  _106
REMARK   44  A    between atoms: _105  and  _108
REMARK   45  A    between atoms: _111  and  _113
REMARK   46  A    between atoms: _113  and  _114
REMARK   47  A    between atoms: _116  and  _118
REMARK   48  A    between atoms: _118  and  _119
REMARK   49  A    between atoms: _118  and  _121
REMARK   50  A    between atoms: _124  and  _126
REMARK   51  A    between atoms: _126  and  _127
REMARK   52  A    between atoms: _126  and  _129
REMARK   53  A    between atoms: _129  and  _130
REMARK   54  A    between atoms: _136  and  _138
REMARK   55  A    between atoms: _138  and  _139
REMARK   56  A    between atoms: _138  and  _141
REMARK   57  A    between atoms: _144  and  _146
REMARK   58  A    between atoms: _146  and  _147
REMARK   59  A    between atoms: _146  and  _149
REMARK   60  A    between atoms: _149  and  _150
REMARK   61  A    between atoms: _156  and  _158
REMARK   62  A    between atoms: _158  and  _159
REMARK   63  A    between atoms: _158  and  _161
REMARK   64  A    between atoms: _161  and  _162
REMARK   65  A    between atoms: _167  and  _168
REMARK   66  A    between atoms: _170  and  _172
REMARK   67  A    between atoms: _172  and  _173
REMARK   68  A    between atoms: _172  and  _175
REMARK   69  A    between atoms: _175  and  _176
REMARK   70  A    between atoms: _176  and  _177
REMARK   71  A    between atoms: _179  and  _181
REMARK   72  A    between atoms: _181  and  _182
REMARK   73  A    between atoms: _181  and  _184
REMARK   74  A    between atoms: _184  and  _185
REMARK   75  A    between atoms: _190  and  _191
REMARK   76  A    between atoms: _193  and  _195
REMARK   77  A    between atoms: _195  and  _196
REMARK   78  A    between atoms: _195  and  _198
REMARK   79  A    between atoms: _198  and  _199
REMARK   80  A    between atoms: _199  and  _200
REMARK   81  A    between atoms: _200  and  _201
REMARK   82  A    between atoms: _210  and  _212
REMARK   83  A    between atoms: _212  and  _213
REMARK   84  A    between atoms: _212  and  _215
REMARK   85  A    between atoms: _215  and  _216
REMARK   86  A    between atoms: _216  and  _217
REMARK   87  A    between atoms: _220  and  _222
REMARK   88  A    between atoms: _222  and  _223
REMARK   89  A    between atoms: _222  and  _225
REMARK   90  A    between atoms: _225  and  _226
REMARK   91  A    between atoms: _226  and  _227
REMARK   92  A    between atoms: _232  and  _234
REMARK   93  A    between atoms: _234  and  _235
REMARK   94  A    between atoms: _234  and  _237
REMARK   95  A    between atoms: _237  and  _238
REMARK   96  A    between atoms: _238  and  _239
REMARK   97  A    between atoms: _239  and  _240
REMARK   98  A    between atoms: _240  and  _241
REMARK   99  A    between atoms: _245  and  _247
REMARK  100  A    between atoms: _247  and  _248
REMARK  101  A    between atoms: _251  and  _253
REMARK  102  A    between atoms: _253  and  _254
REMARK  103  A    between atoms: _256  and  _258
REMARK  104  A    between atoms: _258  and  _259
REMARK  105  A    between atoms: _258  and  _261
REMARK  106  A    between atoms: _261  and  _262
REMARK  107  A    between atoms: _267  and  _269
REMARK  108  A    between atoms: _269  and  _270
REMARK  109  A    between atoms: _269  and  _272
REMARK  110  A    between atoms: _272  and  _273
REMARK  111  A    between atoms: _273  and  _274
REMARK  112  A    between atoms: _277  and  _279
REMARK  113  A    between atoms: _279  and  _280
REMARK  114  A    between atoms: _279  and  _282
REMARK  115  A    between atoms: _282  and  _283
REMARK  116  A    between atoms: _283  and  _284
REMARK  117  A    between atoms: _289  and  _291
REMARK  118  A    between atoms: _291  and  _292
REMARK  119  A    between atoms: _291  and  _294
REMARK  120  A    between atoms: _294  and  _295
REMARK  121  A    between atoms: _297  and  _299
REMARK  122  A    between atoms: _299  and  _300
REMARK  123  A    between atoms: _299  and  _302
REMARK  124  A    between atoms: _302  and  _303
REMARK  125  A    between atoms: _309  and  _311
REMARK  126  A    between atoms: _311  and  _312
REMARK  127  A    between atoms: _311  and  _314
REMARK  128  A    between atoms: _314  and  _315
REMARK  129  A    between atoms: _315  and  _316
REMARK  130  A    between atoms: _316  and  _317
REMARK  131  A    between atoms: _326  and  _328
REMARK  132  A    between atoms: _328  and  _329
REMARK  133  A    between atoms: _328  and  _331
REMARK  134  A    between atoms: _334  and  _336
REMARK  135  A    between atoms: _336  and  _337
REMARK  136  A    between atoms: _336  and  _339
REMARK  137  A    between atoms: _339  and  _340
REMARK  138  A    between atoms: _343  and  _345
REMARK  139  A    between atoms: _345  and  _346
REMARK  140  A    between atoms: _345  and  _348
REMARK  141  A    between atoms: _348  and  _349
REMARK  142  A    between atoms: _352  and  _354
REMARK  143  A    between atoms: _354  and  _355
REMARK  144  A    between atoms: _354  and  _357
REMARK  145  A    between atoms: _357  and  _358
REMARK  146  A    between atoms: _358  and  _359
REMARK  147  A    between atoms: _359  and  _360
REMARK  148  A    between atoms: _369  and  _371
REMARK  149  A    between atoms: _371  and  _372
REMARK  150  A    between atoms: _371  and  _374
REMARK  151  A    between atoms: _374  and  _375
REMARK  152  A    between atoms: _378  and  _380
REMARK  153  A    between atoms: _380  and  _381
REMARK  154  A    between atoms: _380  and  _383
REMARK  155  A    between atoms: _383  and  _384
REMARK  156  A    between atoms: _387  and  _389
REMARK  157  A    between atoms: _389  and  _390
REMARK  158  A    between atoms: _389  and  _392
REMARK  159  A    between atoms: _392  and  _393
REMARK  160  A    between atoms: _398  and  _399
REMARK  161  A    between atoms: _401  and  _403
REMARK  162  A    between atoms: _403  and  _404
REMARK  163  A    between atoms: _403  and  _406
REMARK  164  A    between atoms: _406  and  _407
REMARK  165  A    between atoms: _412  and  _413
REMARK  166  A    between atoms: _415  and  _417
REMARK  167  A    between atoms: _417  and  _418
REMARK  168  A    between atoms: _417  and  _420
REMARK  169  A    between atoms: _420  and  _421
REMARK  170  A    between atoms: _424  and  _426
REMARK  171  A    between atoms: _426  and  _427
REMARK  172  A    between atoms: _426  and  _429
REMARK  173  A    between atoms: _429  and  _430
REMARK  174  A    between atoms: _430  and  _431
REMARK  175  A    between atoms: _436  and  _438
REMARK  176  A    between atoms: _438  and  _439
REMARK  177  A    between atoms: _438  and  _441
REMARK  178  A    between atoms: _444  and  _446
REMARK  179  A    between atoms: _446  and  _447
REMARK  180  A    between atoms: _446  and  _449
REMARK  181  A    between atoms: _449  and  _450
REMARK  182  A    between atoms: _453  and  _455
REMARK  183  A    between atoms: _455  and  _456
REMARK  184  A    between atoms: _455  and  _458
REMARK  185  A    between atoms: _458  and  _459
REMARK  186  A    between atoms: _461  and  _463
REMARK  187  A    between atoms: _463  and  _464
REMARK  188  A    between atoms: _466  and  _468
REMARK  189  A    between atoms: _468  and  _469
REMARK  190  A    between atoms: _468  and  _471
REMARK  191  A    between atoms: _471  and  _472
REMARK  192  A    between atoms: _472  and  _774
REMARK  193  A    between atoms: _473  and  _475
REMARK  194  A    between atoms: _475  and  _476
REMARK  195  A    between atoms: _475  and  _478
REMARK  196  A    between atoms: _478  and  _479
REMARK  197  A    between atoms: _484  and  _485
REMARK  198  A    between atoms: _487  and  _489
REMARK  199  A    between atoms: _489  and  _490
REMARK  200  A    between atoms: _489  and  _492
REMARK  201  A    between atoms: _492  and  _493
REMARK  202  A    between atoms: _493  and  _494
REMARK  203  A    between atoms: _499  and  _501
REMARK  204  A    between atoms: _501  and  _502
REMARK  205  A    between atoms: _501  and  _504
REMARK  206  A    between atoms: _504  and  _505
REMARK  207  A    between atoms: _505  and  _506
REMARK  208  A    between atoms: _511  and  _513
REMARK  209  A    between atoms: _513  and  _514
REMARK  210  A    between atoms: _513  and  _516
REMARK  211  A    between atoms: _516  and  _517
REMARK  212  A    between atoms: _522  and  _523
REMARK  213  A    between atoms: _525  and  _527
REMARK  214  A    between atoms: _527  and  _528
REMARK  215  A    between atoms: _531  and  _533
REMARK  216  A    between atoms: _533  and  _534
REMARK  217  A    between atoms: _533  and  _536
REMARK  218  A    between atoms: _536  and  _537
REMARK  219  A    between atoms: _542  and  _543
REMARK  220  A    between atoms: _545  and  _547
REMARK  221  A    between atoms: _547  and  _548
REMARK  222  A    between atoms: _547  and  _550
REMARK  223  A    between atoms: _550  and  _551
REMARK  224  A    between atoms: _556  and  _557
REMARK  225  A    between atoms: _559  and  _561
REMARK  226  A    between atoms: _561  and  _562
REMARK  227  A    between atoms: _561  and  _564
REMARK  228  A    between atoms: _564  and  _565
REMARK  229  A    between atoms: _568  and  _570
REMARK  230  A    between atoms: _570  and  _571
REMARK  231  A    between atoms: _574  and  _576
REMARK  232  A    between atoms: _576  and  _577
REMARK  233  A    between atoms: _580  and  _582
REMARK  234  A    between atoms: _582  and  _583
REMARK  235  A    between atoms: _582  and  _585
REMARK  236  A    between atoms: _585  and  _586
REMARK  237  A    between atoms: _589  and  _591
REMARK  238  A    between atoms: _591  and  _592
REMARK  239  A    between atoms: _591  and  _594
REMARK  240  A    between atoms: _594  and  _595
REMARK  241  A    between atoms: _598  and  _600
REMARK  242  A    between atoms: _600  and  _601
REMARK  243  A    between atoms: _600  and  _603
REMARK  244  A    between atoms: _603  and  _604
REMARK  245  A    between atoms: _607  and  _609
REMARK  246  A    between atoms: _609  and  _610
REMARK  247  A    between atoms: _609  and  _612
REMARK  248  A    between atoms: _612  and  _613
REMARK  249  A    between atoms: _613  and  _614
REMARK  250  A    between atoms: _614  and  _615
REMARK  251  A    between atoms: _615  and  _616
REMARK  252  A    between atoms: _620  and  _622
REMARK  253  A    between atoms: _622  and  _623
REMARK  254  A    between atoms: _622  and  _625
REMARK  255  A    between atoms: _625  and  _626
REMARK  256  A    between atoms: _631  and  _633
REMARK  257  A    between atoms: _633  and  _634
REMARK  258  A    between atoms: _633  and  _636
REMARK  259  A    between atoms: _636  and  _637
REMARK  260  A    between atoms: _637  and  _638
REMARK  261  A    between atoms: _638  and  _639
REMARK  262  A    between atoms: _639  and  _640
REMARK  263  A    between atoms: _644  and  _646
REMARK  264  A    between atoms: _646  and  _647
REMARK  265  A    between atoms: _646  and  _649
REMARK  266  A    between atoms: _649  and  _650
REMARK  267  A    between atoms: _660  and  _662
REMARK  268  A    between atoms: _662  and  _663
REMARK  269  A    between atoms: _666  and  _668
REMARK  270  A    between atoms: _668  and  _669
REMARK  271  A    between atoms: _671  and  _673
REMARK  272  A    between atoms: _673  and  _674
REMARK  273  A    between atoms: _673  and  _676
REMARK  274  A    between atoms: _676  and  _677
REMARK  275  A    between atoms: _677  and  _678
REMARK  276  A    between atoms: _681  and  _683
REMARK  277  A    between atoms: _683  and  _684
REMARK  278  A    between atoms: _687  and  _689
REMARK  279  A    between atoms: _689  and  _690
REMARK  280  A    between atoms: _689  and  _692
REMARK  281  A    between atoms: _692  and  _693
REMARK  282  A    between atoms: _693  and  _694
REMARK  283  A    between atoms: _694  and  _695
REMARK  284  A    between atoms: _704  and  _706
REMARK  285  A    between atoms: _706  and  _707
REMARK  286  A    between atoms: _706  and  _709
REMARK  287  A    between atoms: _709  and  _710
REMARK  288  A    between atoms: _713  and  _715
REMARK  289  A    between atoms: _715  and  _716
REMARK  290  A    between atoms: _715  and  _718
REMARK  291  A    between atoms: _718  and  _719
REMARK  292  A    between atoms: _719  and  _720
REMARK  293  A    between atoms: _720  and  _721
REMARK  294  A    between atoms: _730  and  _732
REMARK  295  A    between atoms: _732  and  _733
REMARK  296  A    between atoms: _736  and  _738
REMARK  297  A    between atoms: _738  and  _739
REMARK  298  A    between atoms: _738  and  _741
REMARK  299  A    between atoms: _741  and  _742
REMARK  300  A    between atoms: _747  and  _748
REMARK  301  A    between atoms: _750  and  _752
REMARK  302  A    between atoms: _752  and  _753
REMARK  303  A    between atoms: _752  and  _755
REMARK  304  A    between atoms: _755  and  _756
REMARK  305  A    between atoms: _759  and  _761
REMARK  306  A    between atoms: _761  and  _762
REMARK  307  A    between atoms: _761  and  _764
REMARK  308  A    between atoms: _764  and  _765
REMARK  309  A    between atoms: _768  and  _770
REMARK  310  A    between atoms: _770  and  _771
REMARK  311  A    between atoms: _770  and  _773
REMARK  312  A    between atoms: _773  and  _774
REMARK  313  A    between atoms: _775  and  _777
REMARK  314  A    between atoms: _777  and  _778
REMARK  315  A    between atoms: _777  and  _780
REMARK  316  A    between atoms: _783  and  _785
REMARK  317  A    between atoms: _785  and  _786
REMARK  318  A    between atoms: _785  and  _788
REMARK  319  A    between atoms: _788  and  _789
REMARK  320  A    between atoms: _789  and  _790
REMARK  321  A    between atoms: _793  and  _795
REMARK  322  A    between atoms: _795  and  _796
REMARK  323  A    between atoms: _795  and  _798
REMARK  324  A    between atoms: _798  and  _799
REMARK  325  A    between atoms: _809  and  _811
REMARK  326  A    between atoms: _811  and  _812
REMARK  327  A    between atoms: _811  and  _814
REMARK  328  A    between atoms: _814  and  _815
REMARK  329  A    between atoms: _818  and  _820
REMARK  330  A    between atoms: _820  and  _821
REMARK  331  A    between atoms: _820  and  _823
REMARK  332  A    between atoms: _823  and  _824
REMARK  333  A    between atoms: _829  and  _830
REMARK                            x       y       z     vdW  Elec       q    Type
REMARK                         _______ _______ _______ _____ _____    ______ ____
ROOT
ATOM      1  O   HOH     1     -16.580   0.655  35.632  0.00  0.00    +0.000 OA
ENDROOT
TORSDOF 0
REMARK  Name = ../refined-set-2016/3p9l/3p9l_pocket.pdb
REMARK  333 active torsions:
REMARK  status: ('A' for Active; 'I' for Inactive)
REMARK    1  A    between atoms: _1  and  _3
REMARK    2  A    between atoms: _3  and  _4
REMARK    3  A    between atoms: _3  and  _6
REMARK    4  A    between atoms: _6  and  _7
REMARK    5  A    between atoms: _10  and  _12
REMARK    6  A    between atoms: _12  and  _13
REMARK    7  A    between atoms: _12  and  _15
REMARK    8  A    between atoms: _15  and  _16
REMARK    9  A    between atoms: _16  and  _17
REMARK   10  A    between atoms: _17  and  _18
REMARK   11  A    between atoms: _27  and  _29
REMARK   12  A    between atoms: _29  and  _30
REMARK   13  A    between atoms: _29  and  _32
REMARK   14  A    between atoms: _32  and  _33
REMARK   15  A    between atoms: _38  and  _39
REMARK   16  A    between atoms: _41  and  _43
REMARK   17  A    between atoms: _43  and  _44
REMARK   18  A    between atoms: _43  and  _46
REMARK   19  A    between atoms: _46  and  _47
REMARK   20  A    between atoms: _53  and  _55
REMARK   21  A    between atoms: _55  and  _56
REMARK   22  A    between atoms: _55  and  _58
REMARK   23  A    between atoms: _61  and  _63
REMARK   24  A    between atoms: _63  and  _64
REMARK   25  A    between atoms: _63  and  _66
REMARK   26  A    between atoms: _66  and  _67
REMARK   27  A    between atoms: _70  and  _72
REMARK   28  A    between atoms: _72  and  _73
REMARK   29  A    between atoms: _72  and  _75
REMARK   30  A    between atoms: _75  and  _76
REMARK   31  A    between atoms: _81  and  _82
REMARK   32  A    between atoms: _84  and  _86
REMARK   33  A    between atoms: _86  and  _87
REMARK   34  A    between atoms: _86  and  _89
REMARK   35  A    between atoms: _89  and  _90
REMARK   36  A    between atoms: _90  and  _91
REMARK   37  A    between atoms: _93  and  _95
REMARK   38  A    between atoms: _95  and  _96
REMARK   39  A    between atoms: _95  and  _98
REMARK   40  A    between atoms: _98  and  _99
REMARK   41  A    between atoms: _99  and  _100
REMARK   42  A    between atoms: _103  and  _105
REMARK   43  A    between atoms: _105  and  _106
REMARK   44  A    between atoms: _105  and  _108
REMARK   45  A    between atoms: _111  and  _113
REMARK   46  A    between atoms: _113  and  _114
REMARK   47  A    between atoms: _116  and  _118
REMARK   48  A    between atoms: _118  and  _119
REMARK   49  A    between atoms: _118  and  _121
REMARK   50  A    between atoms: _124  and  _126
REMARK   51  A    between atoms: _126  and  _127
REMARK   52  A    between atoms: _126  and  _129
REMARK   53  A    between atoms: _129  and  _130
REMARK   54  A    between atoms: _136  and  _138
REMARK   55  A    between atoms: _138  and  _139
REMARK   56  A    between atoms: _138  and  _141
REMARK   57  A    between atoms: _144  and  _146
REMARK   58  A    between atoms: _146  and  _147
REMARK   59  A    between atoms: _146  and  _149
REMARK   60  A    between atoms: _149  and  _150
REMARK   61  A    between atoms: _156  and  _158
REMARK   62  A    between atoms: _158  and  _159
REMARK   63  A    between atoms: _158  and  _161
REMARK   64  A    between atoms: _161  and  _162
REMARK   65  A    between atoms: _167  and  _168
REMARK   66  A    between atoms: _170  and  _172
REMARK   67  A    between atoms: _172  and  _173
REMARK   68  A    between atoms: _172  and  _175
REMARK   69  A    between atoms: _175  and  _176
REMARK   70  A    between atoms: _176  and  _177
REMARK   71  A    between atoms: _179  and  _181
REMARK   72  A    between atoms: _181  and  _182
REMARK   73  A    between atoms: _181  and  _184
REMARK   74  A    between atoms: _184  and  _185
REMARK   75  A    between atoms: _190  and  _191
REMARK   76  A    between atoms: _193  and  _195
REMARK   77  A    between atoms: _195  and  _196
REMARK   78  A    between atoms: _195  and  _198
REMARK   79  A    between atoms: _198  and  _199
REMARK   80  A    between atoms: _199  and  _200
REMARK   81  A    between atoms: _200  and  _201
REMARK   82  A    between atoms: _210  and  _212
REMARK   83  A    between atoms: _212  and  _213
REMARK   84  A    between atoms: _212  and  _215
REMARK   85  A    between atoms: _215  and  _216
REMARK   86  A    between atoms: _216  and  _217
REMARK   87  A    between atoms: _220  and  _222
REMARK   88  A    between atoms: _222  and  _223
REMARK   89  A    between atoms: _222  and  _225
REMARK   90  A    between atoms: _225  and  _226
REMARK   91  A    between atoms: _226  and  _227
REMARK   92  A    between atoms: _232  and  _234
REMARK   93  A    between atoms: _234  and  _235
REMARK   94  A    between atoms: _234  and  _237
REMARK   95  A    between atoms: _237  and  _238
REMARK   96  A    between atoms: _238  and  _239
REMARK   97  A    between atoms: _239  and  _240
REMARK   98  A    between atoms: _240  and  _241
REMARK   99  A    between atoms: _245  and  _247
REMARK  100  A    between atoms: _247  and  _248
REMARK  101  A    between atoms: _251  and  _253
REMARK  102  A    between atoms: _253  and  _254
REMARK  103  A    between atoms: _256  and  _258
REMARK  104  A    between atoms: _258  and  _259
REMARK  105  A    between atoms: _258  and  _261
REMARK  106  A    between atoms: _261  and  _262
REMARK  107  A    between atoms: _267  and  _269
REMARK  108  A    between atoms: _269  and  _270
REMARK  109  A    between atoms: _269  and  _272
REMARK  110  A    between atoms: _272  and  _273
REMARK  111  A    between atoms: _273  and  _274
REMARK  112  A    between atoms: _277  and  _279
REMARK  113  A    between atoms: _279  and  _280
REMARK  114  A    between atoms: _279  and  _282
REMARK  115  A    between atoms: _282  and  _283
REMARK  116  A    between atoms: _283  and  _284
REMARK  117  A    between atoms: _289  and  _291
REMARK  118  A    between atoms: _291  and  _292
REMARK  119  A    between atoms: _291  and  _294
REMARK  120  A    between atoms: _294  and  _295
REMARK  121  A    between atoms: _297  and  _299
REMARK  122  A    between atoms: _299  and  _300
REMARK  123  A    between atoms: _299  and  _302
REMARK  124  A    between atoms: _302  and  _303
REMARK  125  A    between atoms: _309  and  _311
REMARK  126  A    between atoms: _311  and  _312
REMARK  127  A    between atoms: _311  and  _314
REMARK  128  A    between atoms: _314  and  _315
REMARK  129  A    between atoms: _315  and  _316
REMARK  130  A    between atoms: _316  and  _317
REMARK  131  A    between atoms: _326  and  _328
REMARK  132  A    between atoms: _328  and  _329
REMARK  133  A    between atoms: _328  and  _331
REMARK  134  A    between atoms: _334  and  _336
REMARK  135  A    between atoms: _336  and  _337
REMARK  136  A    between atoms: _336  and  _339
REMARK  137  A    between atoms: _339  and  _340
REMARK  138  A    between atoms: _343  and  _345
REMARK  139  A    between atoms: _345  and  _346
REMARK  140  A    between atoms: _345  and  _348
REMARK  141  A    between atoms: _348  and  _349
REMARK  142  A    between atoms: _352  and  _354
REMARK  143  A    between atoms: _354  and  _355
REMARK  144  A    between atoms: _354  and  _357
REMARK  145  A    between atoms: _357  and  _358
REMARK  146  A    between atoms: _358  and  _359
REMARK  147  A    between atoms: _359  and  _360
REMARK  148  A    between atoms: _369  and  _371
REMARK  149  A    between atoms: _371  and  _372
REMARK  150  A    between atoms: _371  and  _374
REMARK  151  A    between atoms: _374  and  _375
REMARK  152  A    between atoms: _378  and  _380
REMARK  153  A    between atoms: _380  and  _381
REMARK  154  A    between atoms: _380  and  _383
REMARK  155  A    between atoms: _383  and  _384
REMARK  156  A    between atoms: _387  and  _389
REMARK  157  A    between atoms: _389  and  _390
REMARK  158  A    between atoms: _389  and  _392
REMARK  159  A    between atoms: _392  and  _393
REMARK  160  A    between atoms: _398  and  _399
REMARK  161  A    between atoms: _401  and  _403
REMARK  162  A    between atoms: _403  and  _404
REMARK  163  A    between atoms: _403  and  _406
REMARK  164  A    between atoms: _406  and  _407
REMARK  165  A    between atoms: _412  and  _413
REMARK  166  A    between atoms: _415  and  _417
REMARK  167  A    between atoms: _417  and  _418
REMARK  168  A    between atoms: _417  and  _420
REMARK  169  A    between atoms: _420  and  _421
REMARK  170  A    between atoms: _424  and  _426
REMARK  171  A    between atoms: _426  and  _427
REMARK  172  A    between atoms: _426  and  _429
REMARK  173  A    between atoms: _429  and  _430
REMARK  174  A    between atoms: _430  and  _431
REMARK  175  A    between atoms: _436  and  _438
REMARK  176  A    between atoms: _438  and  _439
REMARK  177  A    between atoms: _438  and  _441
REMARK  178  A    between atoms: _444  and  _446
REMARK  179  A    between atoms: _446  and  _447
REMARK  180  A    between atoms: _446  and  _449
REMARK  181  A    between atoms: _449  and  _450
REMARK  182  A    between atoms: _453  and  _455
REMARK  183  A    between atoms: _455  and  _456
REMARK  184  A    between atoms: _455  and  _458
REMARK  185  A    between atoms: _458  and  _459
REMARK  186  A    between atoms: _461  and  _463
REMARK  187  A    between atoms: _463  and  _464
REMARK  188  A    between atoms: _466  and  _468
REMARK  189  A    between atoms: _468  and  _469
REMARK  190  A    between atoms: _468  and  _471
REMARK  191  A    between atoms: _471  and  _472
REMARK  192  A    between atoms: _472  and  _774
REMARK  193  A    between atoms: _473  and  _475
REMARK  194  A    between atoms: _475  and  _476
REMARK  195  A    between atoms: _475  and  _478
REMARK  196  A    between atoms: _478  and  _479
REMARK  197  A    between atoms: _484  and  _485
REMARK  198  A    between atoms: _487  and  _489
REMARK  199  A    between atoms: _489  and  _490
REMARK  200  A    between atoms: _489  and  _492
REMARK  201  A    between atoms: _492  and  _493
REMARK  202  A    between atoms: _493  and  _494
REMARK  203  A    between atoms: _499  and  _501
REMARK  204  A    between atoms: _501  and  _502
REMARK  205  A    between atoms: _501  and  _504
REMARK  206  A    between atoms: _504  and  _505
REMARK  207  A    between atoms: _505  and  _506
REMARK  208  A    between atoms: _511  and  _513
REMARK  209  A    between atoms: _513  and  _514
REMARK  210  A    between atoms: _513  and  _516
REMARK  211  A    between atoms: _516  and  _517
REMARK  212  A    between atoms: _522  and  _523
REMARK  213  A    between atoms: _525  and  _527
REMARK  214  A    between atoms: _527  and  _528
REMARK  215  A    between atoms: _531  and  _533
REMARK  216  A    between atoms: _533  and  _534
REMARK  217  A    between atoms: _533  and  _536
REMARK  218  A    between atoms: _536  and  _537
REMARK  219  A    between atoms: _542  and  _543
REMARK  220  A    between atoms: _545  and  _547
REMARK  221  A    between atoms: _547  and  _548
REMARK  222  A    between atoms: _547  and  _550
REMARK  223  A    between atoms: _550  and  _551
REMARK  224  A    between atoms: _556  and  _557
REMARK  225  A    between atoms: _559  and  _561
REMARK  226  A    between atoms: _561  and  _562
REMARK  227  A    between atoms: _561  and  _564
REMARK  228  A    between atoms: _564  and  _565
REMARK  229  A    between atoms: _568  and  _570
REMARK  230  A    between atoms: _570  and  _571
REMARK  231  A    between atoms: _574  and  _576
REMARK  232  A    between atoms: _576  and  _577
REMARK  233  A    between atoms: _580  and  _582
REMARK  234  A    between atoms: _582  and  _583
REMARK  235  A    between atoms: _582  and  _585
REMARK  236  A    between atoms: _585  and  _586
REMARK  237  A    between atoms: _589  and  _591
REMARK  238  A    between atoms: _591  and  _592
REMARK  239  A    between atoms: _591  and  _594
REMARK  240  A    between atoms: _594  and  _595
REMARK  241  A    between atoms: _598  and  _600
REMARK  242  A    between atoms: _600  and  _601
REMARK  243  A    between atoms: _600  and  _603
REMARK  244  A    between atoms: _603  and  _604
REMARK  245  A    between atoms: _607  and  _609
REMARK  246  A    between atoms: _609  and  _610
REMARK  247  A    between atoms: _609  and  _612
REMARK  248  A    between atoms: _612  and  _613
REMARK  249  A    between atoms: _613  and  _614
REMARK  250  A    between atoms: _614  and  _615
REMARK  251  A    between atoms: _615  and  _616
REMARK  252  A    between atoms: _620  and  _622
REMARK  253  A    between atoms: _622  and  _623
REMARK  254  A    between atoms: _622  and  _625
REMARK  255  A    between atoms: _625  and  _626
REMARK  256  A    between atoms: _631  and  _633
REMARK  257  A    between atoms: _633  and  _634
REMARK  258  A    between atoms: _633  and  _636
REMARK  259  A    between atoms: _636  and  _637
REMARK  260  A    between atoms: _637  and  _638
REMARK  261  A    between atoms: _638  and  _639
REMARK  262  A    between atoms: _639  and  _640
REMARK  263  A    between atoms: _644  and  _646
REMARK  264  A    between atoms: _646  and  _647
REMARK  265  A    between atoms: _646  and  _649
REMARK  266  A    between atoms: _649  and  _650
REMARK  267  A    between atoms: _660  and  _662
REMARK  268  A    between atoms: _662  and  _663
REMARK  269  A    between atoms: _666  and  _668
REMARK  270  A    between atoms: _668  and  _669
REMARK  271  A    between atoms: _671  and  _673
REMARK  272  A    between atoms: _673  and  _674
REMARK  273  A    between atoms: _673  and  _676
REMARK  274  A    between atoms: _676  and  _677
REMARK  275  A    between atoms: _677  and  _678
REMARK  276  A    between atoms: _681  and  _683
REMARK  277  A    between atoms: _683  and  _684
REMARK  278  A    between atoms: _687  and  _689
REMARK  279  A    between atoms: _689  and  _690
REMARK  280  A    between atoms: _689  and  _692
REMARK  281  A    between atoms: _692  and  _693
REMARK  282  A    between atoms: _693  and  _694
REMARK  283  A    between atoms: _694  and  _695
REMARK  284  A    between atoms: _704  and  _706
REMARK  285  A    between atoms: _706  and  _707
REMARK  286  A    between atoms: _706  and  _709
REMARK  287  A    between atoms: _709  and  _710
REMARK  288  A    between atoms: _713  and  _715
REMARK  289  A    between atoms: _715  and  _716
REMARK  290  A    between atoms: _715  and  _718
REMARK  291  A    between atoms: _718  and  _719
REMARK  292  A    between atoms: _719  and  _720
REMARK  293  A    between atoms: _720  and  _721
REMARK  294  A    between atoms: _730  and  _732
REMARK  295  A    between atoms: _732  and  _733
REMARK  296  A    between atoms: _736  and  _738
REMARK  297  A    between atoms: _738  and  _739
REMARK  298  A    between atoms: _738  and  _741
REMARK  299  A    between atoms: _741  and  _742
REMARK  300  A    between atoms: _747  and  _748
REMARK  301  A    between atoms: _750  and  _752
REMARK  302  A    between atoms: _752  and  _753
REMARK  303  A    between atoms: _752  and  _755
REMARK  304  A    between atoms: _755  and  _756
REMARK  305  A    between atoms: _759  and  _761
REMARK  306  A    between atoms: _761  and  _762
REMARK  307  A    between atoms: _761  and  _764
REMARK  308  A    between atoms: _764  and  _765
REMARK  309  A    between atoms: _768  and  _770
REMARK  310  A    between atoms: _770  and  _771
REMARK  311  A    between atoms: _770  and  _773
REMARK  312  A    between atoms: _773  and  _774
REMARK  313  A    between atoms: _775  and  _777
REMARK  314  A    between atoms: _777  and  _778
REMARK  315  A    between atoms: _777  and  _780
REMARK  316  A    between atoms: _783  and  _785
REMARK  317  A    between atoms: _785  and  _786
REMARK  318  A    between atoms: _785  and  _788
REMARK  319  A    between atoms: _788  and  _789
REMARK  320  A    between atoms: _789  and  _790
REMARK  321  A    between atoms: _793  and  _795
REMARK  322  A    between atoms: _795  and  _796
REMARK  323  A    between atoms: _795  and  _798
REMARK  324  A    between atoms: _798  and  _799
REMARK  325  A    between atoms: _809  and  _811
REMARK  326  A    between atoms: _811  and  _812
REMARK  327  A    between atoms: _811  and  _814
REMARK  328  A    between atoms: _814  and  _815
REMARK  329  A    between atoms: _818  and  _820
REMARK  330  A    between atoms: _820  and  _821
REMARK  331  A    between atoms: _820  and  _823
REMARK  332  A    between atoms: _823  and  _824
REMARK  333  A    between atoms: _829  and  _830
REMARK                            x       y       z     vdW  Elec       q    Type
REMARK                         _______ _______ _______ _____ _____    ______ ____
ROOT
ATOM      1  O   HOH     1     -17.269  -1.921  36.179  0.00  0.00    +0.000 OA
ENDROOT
TORSDOF 0
REMARK  Name = ../refined-set-2016/3p9l/3p9l_pocket.pdb
REMARK  333 active torsions:
REMARK  status: ('A' for Active; 'I' for Inactive)
REMARK    1  A    between atoms: _1  and  _3
REMARK    2  A    between atoms: _3  and  _4
REMARK    3  A    between atoms: _3  and  _6
REMARK    4  A    between atoms: _6  and  _7
REMARK    5  A    between atoms: _10  and  _12
REMARK    6  A    between atoms: _12  and  _13
REMARK    7  A    between atoms: _12  and  _15
REMARK    8  A    between atoms: _15  and  _16
REMARK    9  A    between atoms: _16  and  _17
REMARK   10  A    between atoms: _17  and  _18
REMARK   11  A    between atoms: _27  and  _29
REMARK   12  A    between atoms: _29  and  _30
REMARK   13  A    between atoms: _29  and  _32
REMARK   14  A    between atoms: _32  and  _33
REMARK   15  A    between atoms: _38  and  _39
REMARK   16  A    between atoms: _41  and  _43
REMARK   17  A    between atoms: _43  and  _44
REMARK   18  A    between atoms: _43  and  _46
REMARK   19  A    between atoms: _46  and  _47
REMARK   20  A    between atoms: _53  and  _55
REMARK   21  A    between atoms: _55  and  _56
REMARK   22  A    between atoms: _55  and  _58
REMARK   23  A    between atoms: _61  and  _63
REMARK   24  A    between atoms: _63  and  _64
REMARK   25  A    between atoms: _63  and  _66
REMARK   26  A    between atoms: _66  and  _67
REMARK   27  A    between atoms: _70  and  _72
REMARK   28  A    between atoms: _72  and  _73
REMARK   29  A    between atoms: _72  and  _75
REMARK   30  A    between atoms: _75  and  _76
REMARK   31  A    between atoms: _81  and  _82
REMARK   32  A    between atoms: _84  and  _86
REMARK   33  A    between atoms: _86  and  _87
REMARK   34  A    between atoms: _86  and  _89
REMARK   35  A    between atoms: _89  and  _90
REMARK   36  A    between atoms: _90  and  _91
REMARK   37  A    between atoms: _93  and  _95
REMARK   38  A    between atoms: _95  and  _96
REMARK   39  A    between atoms: _95  and  _98
REMARK   40  A    between atoms: _98  and  _99
REMARK   41  A    between atoms: _99  and  _100
REMARK   42  A    between atoms: _103  and  _105
REMARK   43  A    between atoms: _105  and  _106
REMARK   44  A    between atoms: _105  and  _108
REMARK   45  A    between atoms: _111  and  _113
REMARK   46  A    between atoms: _113  and  _114
REMARK   47  A    between atoms: _116  and  _118
REMARK   48  A    between atoms: _118  and  _119
REMARK   49  A    between atoms: _118  and  _121
REMARK   50  A    between atoms: _124  and  _126
REMARK   51  A    between atoms: _126  and  _127
REMARK   52  A    between atoms: _126  and  _129
REMARK   53  A    between atoms: _129  and  _130
REMARK   54  A    between atoms: _136  and  _138
REMARK   55  A    between atoms: _138  and  _139
REMARK   56  A    between atoms: _138  and  _141
REMARK   57  A    between atoms: _144  and  _146
REMARK   58  A    between atoms: _146  and  _147
REMARK   59  A    between atoms: _146  and  _149
REMARK   60  A    between atoms: _149  and  _150
REMARK   61  A    between atoms: _156  and  _158
REMARK   62  A    between atoms: _158  and  _159
REMARK   63  A    between atoms: _158  and  _161
REMARK   64  A    between atoms: _161  and  _162
REMARK   65  A    between atoms: _167  and  _168
REMARK   66  A    between atoms: _170  and  _172
REMARK   67  A    between atoms: _172  and  _173
REMARK   68  A    between atoms: _172  and  _175
REMARK   69  A    between atoms: _175  and  _176
REMARK   70  A    between atoms: _176  and  _177
REMARK   71  A    between atoms: _179  and  _181
REMARK   72  A    between atoms: _181  and  _182
REMARK   73  A    between atoms: _181  and  _184
REMARK   74  A    between atoms: _184  and  _185
REMARK   75  A    between atoms: _190  and  _191
REMARK   76  A    between atoms: _193  and  _195
REMARK   77  A    between atoms: _195  and  _196
REMARK   78  A    between atoms: _195  and  _198
REMARK   79  A    between atoms: _198  and  _199
REMARK   80  A    between atoms: _199  and  _200
REMARK   81  A    between atoms: _200  and  _201
REMARK   82  A    between atoms: _210  and  _212
REMARK   83  A    between atoms: _212  and  _213
REMARK   84  A    between atoms: _212  and  _215
REMARK   85  A    between atoms: _215  and  _216
REMARK   86  A    between atoms: _216  and  _217
REMARK   87  A    between atoms: _220  and  _222
REMARK   88  A    between atoms: _222  and  _223
REMARK   89  A    between atoms: _222  and  _225
REMARK   90  A    between atoms: _225  and  _226
REMARK   91  A    between atoms: _226  and  _227
REMARK   92  A    between atoms: _232  and  _234
REMARK   93  A    between atoms: _234  and  _235
REMARK   94  A    between atoms: _234  and  _237
REMARK   95  A    between atoms: _237  and  _238
REMARK   96  A    between atoms: _238  and  _239
REMARK   97  A    between atoms: _239  and  _240
REMARK   98  A    between atoms: _240  and  _241
REMARK   99  A    between atoms: _245  and  _247
REMARK  100  A    between atoms: _247  and  _248
REMARK  101  A    between atoms: _251  and  _253
REMARK  102  A    between atoms: _253  and  _254
REMARK  103  A    between atoms: _256  and  _258
REMARK  104  A    between atoms: _258  and  _259
REMARK  105  A    between atoms: _258  and  _261
REMARK  106  A    between atoms: _261  and  _262
REMARK  107  A    between atoms: _267  and  _269
REMARK  108  A    between atoms: _269  and  _270
REMARK  109  A    between atoms: _269  and  _272
REMARK  110  A    between atoms: _272  and  _273
REMARK  111  A    between atoms: _273  and  _274
REMARK  112  A    between atoms: _277  and  _279
REMARK  113  A    between atoms: _279  and  _280
REMARK  114  A    between atoms: _279  and  _282
REMARK  115  A    between atoms: _282  and  _283
REMARK  116  A    between atoms: _283  and  _284
REMARK  117  A    between atoms: _289  and  _291
REMARK  118  A    between atoms: _291  and  _292
REMARK  119  A    between atoms: _291  and  _294
REMARK  120  A    between atoms: _294  and  _295
REMARK  121  A    between atoms: _297  and  _299
REMARK  122  A    between atoms: _299  and  _300
REMARK  123  A    between atoms: _299  and  _302
REMARK  124  A    between atoms: _302  and  _303
REMARK  125  A    between atoms: _309  and  _311
REMARK  126  A    between atoms: _311  and  _312
REMARK  127  A    between atoms: _311  and  _314
REMARK  128  A    between atoms: _314  and  _315
REMARK  129  A    between atoms: _315  and  _316
REMARK  130  A    between atoms: _316  and  _317
REMARK  131  A    between atoms: _326  and  _328
REMARK  132  A    between atoms: _328  and  _329
REMARK  133  A    between atoms: _328  and  _331
REMARK  134  A    between atoms: _334  and  _336
REMARK  135  A    between atoms: _336  and  _337
REMARK  136  A    between atoms: _336  and  _339
REMARK  137  A    between atoms: _339  and  _340
REMARK  138  A    between atoms: _343  and  _345
REMARK  139  A    between atoms: _345  and  _346
REMARK  140  A    between atoms: _345  and  _348
REMARK  141  A    between atoms: _348  and  _349
REMARK  142  A    between atoms: _352  and  _354
REMARK  143  A    between atoms: _354  and  _355
REMARK  144  A    between atoms: _354  and  _357
REMARK  145  A    between atoms: _357  and  _358
REMARK  146  A    between atoms: _358  and  _359
REMARK  147  A    between atoms: _359  and  _360
REMARK  148  A    between atoms: _369  and  _371
REMARK  149  A    between atoms: _371  and  _372
REMARK  150  A    between atoms: _371  and  _374
REMARK  151  A    between atoms: _374  and  _375
REMARK  152  A    between atoms: _378  and  _380
REMARK  153  A    between atoms: _380  and  _381
REMARK  154  A    between atoms: _380  and  _383
REMARK  155  A    between atoms: _383  and  _384
REMARK  156  A    between atoms: _387  and  _389
REMARK  157  A    between atoms: _389  and  _390
REMARK  158  A    between atoms: _389  and  _392
REMARK  159  A    between atoms: _392  and  _393
REMARK  160  A    between atoms: _398  and  _399
REMARK  161  A    between atoms: _401  and  _403
REMARK  162  A    between atoms: _403  and  _404
REMARK  163  A    between atoms: _403  and  _406
REMARK  164  A    between atoms: _406  and  _407
REMARK  165  A    between atoms: _412  and  _413
REMARK  166  A    between atoms: _415  and  _417
REMARK  167  A    between atoms: _417  and  _418
REMARK  168  A    between atoms: _417  and  _420
REMARK  169  A    between atoms: _420  and  _421
REMARK  170  A    between atoms: _424  and  _426
REMARK  171  A    between atoms: _426  and  _427
REMARK  172  A    between atoms: _426  and  _429
REMARK  173  A    between atoms: _429  and  _430
REMARK  174  A    between atoms: _430  and  _431
REMARK  175  A    between atoms: _436  and  _438
REMARK  176  A    between atoms: _438  and  _439
REMARK  177  A    between atoms: _438  and  _441
REMARK  178  A    between atoms: _444  and  _446
REMARK  179  A    between atoms: _446  and  _447
REMARK  180  A    between atoms: _446  and  _449
REMARK  181  A    between atoms: _449  and  _450
REMARK  182  A    between atoms: _453  and  _455
REMARK  183  A    between atoms: _455  and  _456
REMARK  184  A    between atoms: _455  and  _458
REMARK  185  A    between atoms: _458  and  _459
REMARK  186  A    between atoms: _461  and  _463
REMARK  187  A    between atoms: _463  and  _464
REMARK  188  A    between atoms: _466  and  _468
REMARK  189  A    between atoms: _468  and  _469
REMARK  190  A    between atoms: _468  and  _471
REMARK  191  A    between atoms: _471  and  _472
REMARK  192  A    between atoms: _472  and  _774
REMARK  193  A    between atoms: _473  and  _475
REMARK  194  A    between atoms: _475  and  _476
REMARK  195  A    between atoms: _475  and  _478
REMARK  196  A    between atoms: _478  and  _479
REMARK  197  A    between atoms: _484  and  _485
REMARK  198  A    between atoms: _487  and  _489
REMARK  199  A    between atoms: _489  and  _490
REMARK  200  A    between atoms: _489  and  _492
REMARK  201  A    between atoms: _492  and  _493
REMARK  202  A    between atoms: _493  and  _494
REMARK  203  A    between atoms: _499  and  _501
REMARK  204  A    between atoms: _501  and  _502
REMARK  205  A    between atoms: _501  and  _504
REMARK  206  A    between atoms: _504  and  _505
REMARK  207  A    between atoms: _505  and  _506
REMARK  208  A    between atoms: _511  and  _513
REMARK  209  A    between atoms: _513  and  _514
REMARK  210  A    between atoms: _513  and  _516
REMARK  211  A    between atoms: _516  and  _517
REMARK  212  A    between atoms: _522  and  _523
REMARK  213  A    between atoms: _525  and  _527
REMARK  214  A    between atoms: _527  and  _528
REMARK  215  A    between atoms: _531  and  _533
REMARK  216  A    between atoms: _533  and  _534
REMARK  217  A    between atoms: _533  and  _536
REMARK  218  A    between atoms: _536  and  _537
REMARK  219  A    between atoms: _542  and  _543
REMARK  220  A    between atoms: _545  and  _547
REMARK  221  A    between atoms: _547  and  _548
REMARK  222  A    between atoms: _547  and  _550
REMARK  223  A    between atoms: _550  and  _551
REMARK  224  A    between atoms: _556  and  _557
REMARK  225  A    between atoms: _559  and  _561
REMARK  226  A    between atoms: _561  and  _562
REMARK  227  A    between atoms: _561  and  _564
REMARK  228  A    between atoms: _564  and  _565
REMARK  229  A    between atoms: _568  and  _570
REMARK  230  A    between atoms: _570  and  _571
REMARK  231  A    between atoms: _574  and  _576
REMARK  232  A    between atoms: _576  and  _577
REMARK  233  A    between atoms: _580  and  _582
REMARK  234  A    between atoms: _582  and  _583
REMARK  235  A    between atoms: _582  and  _585
REMARK  236  A    between atoms: _585  and  _586
REMARK  237  A    between atoms: _589  and  _591
REMARK  238  A    between atoms: _591  and  _592
REMARK  239  A    between atoms: _591  and  _594
REMARK  240  A    between atoms: _594  and  _595
REMARK  241  A    between atoms: _598  and  _600
REMARK  242  A    between atoms: _600  and  _601
REMARK  243  A    between atoms: _600  and  _603
REMARK  244  A    between atoms: _603  and  _604
REMARK  245  A    between atoms: _607  and  _609
REMARK  246  A    between atoms: _609  and  _610
REMARK  247  A    between atoms: _609  and  _612
REMARK  248  A    between atoms: _612  and  _613
REMARK  249  A    between atoms: _613  and  _614
REMARK  250  A    between atoms: _614  and  _615
REMARK  251  A    between atoms: _615  and  _616
REMARK  252  A    between atoms: _620  and  _622
REMARK  253  A    between atoms: _622  and  _623
REMARK  254  A    between atoms: _622  and  _625
REMARK  255  A    between atoms: _625  and  _626
REMARK  256  A    between atoms: _631  and  _633
REMARK  257  A    between atoms: _633  and  _634
REMARK  258  A    between atoms: _633  and  _636
REMARK  259  A    between atoms: _636  and  _637
REMARK  260  A    between atoms: _637  and  _638
REMARK  261  A    between atoms: _638  and  _639
REMARK  262  A    between atoms: _639  and  _640
REMARK  263  A    between atoms: _644  and  _646
REMARK  264  A    between atoms: _646  and  _647
REMARK  265  A    between atoms: _646  and  _649
REMARK  266  A    between atoms: _649  and  _650
REMARK  267  A    between atoms: _660  and  _662
REMARK  268  A    between atoms: _662  and  _663
REMARK  269  A    between atoms: _666  and  _668
REMARK  270  A    between atoms: _668  and  _669
REMARK  271  A    between atoms: _671  and  _673
REMARK  272  A    between atoms: _673  and  _674
REMARK  273  A    between atoms: _673  and  _676
REMARK  274  A    between atoms: _676  and  _677
REMARK  275  A    between atoms: _677  and  _678
REMARK  276  A    between atoms: _681  and  _683
REMARK  277  A    between atoms: _683  and  _684
REMARK  278  A    between atoms: _687  and  _689
REMARK  279  A    between atoms: _689  and  _690
REMARK  280  A    between atoms: _689  and  _692
REMARK  281  A    between atoms: _692  and  _693
REMARK  282  A    between atoms: _693  and  _694
REMARK  283  A    between atoms: _694  and  _695
REMARK  284  A    between atoms: _704  and  _706
REMARK  285  A    between atoms: _706  and  _707
REMARK  286  A    between atoms: _706  and  _709
REMARK  287  A    between atoms: _709  and  _710
REMARK  288  A    between atoms: _713  and  _715
REMARK  289  A    between atoms: _715  and  _716
REMARK  290  A    between atoms: _715  and  _718
REMARK  291  A    between atoms: _718  and  _719
REMARK  292  A    between atoms: _719  and  _720
REMARK  293  A    between atoms: _720  and  _721
REMARK  294  A    between atoms: _730  and  _732
REMARK  295  A    between atoms: _732  and  _733
REMARK  296  A    between atoms: _736  and  _738
REMARK  297  A    between atoms: _738  and  _739
REMARK  298  A    between atoms: _738  and  _741
REMARK  299  A    between atoms: _741  and  _742
REMARK  300  A    between atoms: _747  and  _748
REMARK  301  A    between atoms: _750  and  _752
REMARK  302  A    between atoms: _752  and  _753
REMARK  303  A    between atoms: _752  and  _755
REMARK  304  A    between atoms: _755  and  _756
REMARK  305  A    between atoms: _759  and  _761
REMARK  306  A    between atoms: _761  and  _762
REMARK  307  A    between atoms: _761  and  _764
REMARK  308  A    between atoms: _764  and  _765
REMARK  309  A    between atoms: _768  and  _770
REMARK  310  A    between atoms: _770  and  _771
REMARK  311  A    between atoms: _770  and  _773
REMARK  312  A    between atoms: _773  and  _774
REMARK  313  A    between atoms: _775  and  _777
REMARK  314  A    between atoms: _777  and  _778
REMARK  315  A    between atoms: _777  and  _780
REMARK  316  A    between atoms: _783  and  _785
REMARK  317  A    between atoms: _785  and  _786
REMARK  318  A    between atoms: _785  and  _788
REMARK  319  A    between atoms: _788  and  _789
REMARK  320  A    between atoms: _789  and  _790
REMARK  321  A    between atoms: _793  and  _795
REMARK  322  A    between atoms: _795  and  _796
REMARK  323  A    between atoms: _795  and  _798
REMARK  324  A    between atoms: _798  and  _799
REMARK  325  A    between atoms: _809  and  _811
REMARK  326  A    between atoms: _811  and  _812
REMARK  327  A    between atoms: _811  and  _814
REMARK  328  A    between atoms: _814  and  _815
REMARK  329  A    between atoms: _818  and  _820
REMARK  330  A    between atoms: _820  and  _821
REMARK  331  A    between atoms: _820  and  _823
REMARK  332  A    between atoms: _823  and  _824
REMARK  333  A    between atoms: _829  and  _830
REMARK                            x       y       z     vdW  Elec       q    Type
REMARK                         _______ _______ _______ _____ _____    ______ ____
ROOT
ATOM      1  O   HOH     1     -15.383  10.958  32.182  0.00  0.00    +0.000 OA
ENDROOT
TORSDOF 0
REMARK  Name = ../refined-set-2016/3p9l/3p9l_pocket.pdb
REMARK  333 active torsions:
REMARK  status: ('A' for Active; 'I' for Inactive)
REMARK    1  A    between atoms: _1  and  _3
REMARK    2  A    between atoms: _3  and  _4
REMARK    3  A    between atoms: _3  and  _6
REMARK    4  A    between atoms: _6  and  _7
REMARK    5  A    between atoms: _10  and  _12
REMARK    6  A    between atoms: _12  and  _13
REMARK    7  A    between atoms: _12  and  _15
REMARK    8  A    between atoms: _15  and  _16
REMARK    9  A    between atoms: _16  and  _17
REMARK   10  A    between atoms: _17  and  _18
REMARK   11  A    between atoms: _27  and  _29
REMARK   12  A    between atoms: _29  and  _30
REMARK   13  A    between atoms: _29  and  _32
REMARK   14  A    between atoms: _32  and  _33
REMARK   15  A    between atoms: _38  and  _39
REMARK   16  A    between atoms: _41  and  _43
REMARK   17  A    between atoms: _43  and  _44
REMARK   18  A    between atoms: _43  and  _46
REMARK   19  A    between atoms: _46  and  _47
REMARK   20  A    between atoms: _53  and  _55
REMARK   21  A    between atoms: _55  and  _56
REMARK   22  A    between atoms: _55  and  _58
REMARK   23  A    between atoms: _61  and  _63
REMARK   24  A    between atoms: _63  and  _64
REMARK   25  A    between atoms: _63  and  _66
REMARK   26  A    between atoms: _66  and  _67
REMARK   27  A    between atoms: _70  and  _72
REMARK   28  A    between atoms: _72  and  _73
REMARK   29  A    between atoms: _72  and  _75
REMARK   30  A    between atoms: _75  and  _76
REMARK   31  A    between atoms: _81  and  _82
REMARK   32  A    between atoms: _84  and  _86
REMARK   33  A    between atoms: _86  and  _87
REMARK   34  A    between atoms: _86  and  _89
REMARK   35  A    between atoms: _89  and  _90
REMARK   36  A    between atoms: _90  and  _91
REMARK   37  A    between atoms: _93  and  _95
REMARK   38  A    between atoms: _95  and  _96
REMARK   39  A    between atoms: _95  and  _98
REMARK   40  A    between atoms: _98  and  _99
REMARK   41  A    between atoms: _99  and  _100
REMARK   42  A    between atoms: _103  and  _105
REMARK   43  A    between atoms: _105  and  _106
REMARK   44  A    between atoms: _105  and  _108
REMARK   45  A    between atoms: _111  and  _113
REMARK   46  A    between atoms: _113  and  _114
REMARK   47  A    between atoms: _116  and  _118
REMARK   48  A    between atoms: _118  and  _119
REMARK   49  A    between atoms: _118  and  _121
REMARK   50  A    between atoms: _124  and  _126
REMARK   51  A    between atoms: _126  and  _127
REMARK   52  A    between atoms: _126  and  _129
REMARK   53  A    between atoms: _129  and  _130
REMARK   54  A    between atoms: _136  and  _138
REMARK   55  A    between atoms: _138  and  _139
REMARK   56  A    between atoms: _138  and  _141
REMARK   57  A    between atoms: _144  and  _146
REMARK   58  A    between atoms: _146  and  _147
REMARK   59  A    between atoms: _146  and  _149
REMARK   60  A    between atoms: _149  and  _150
REMARK   61  A    between atoms: _156  and  _158
REMARK   62  A    between atoms: _158  and  _159
REMARK   63  A    between atoms: _158  and  _161
REMARK   64  A    between atoms: _161  and  _162
REMARK   65  A    between atoms: _167  and  _168
REMARK   66  A    between atoms: _170  and  _172
REMARK   67  A    between atoms: _172  and  _173
REMARK   68  A    between atoms: _172  and  _175
REMARK   69  A    between atoms: _175  and  _176
REMARK   70  A    between atoms: _176  and  _177
REMARK   71  A    between atoms: _179  and  _181
REMARK   72  A    between atoms: _181  and  _182
REMARK   73  A    between atoms: _181  and  _184
REMARK   74  A    between atoms: _184  and  _185
REMARK   75  A    between atoms: _190  and  _191
REMARK   76  A    between atoms: _193  and  _195
REMARK   77  A    between atoms: _195  and  _196
REMARK   78  A    between atoms: _195  and  _198
REMARK   79  A    between atoms: _198  and  _199
REMARK   80  A    between atoms: _199  and  _200
REMARK   81  A    between atoms: _200  and  _201
REMARK   82  A    between atoms: _210  and  _212
REMARK   83  A    between atoms: _212  and  _213
REMARK   84  A    between atoms: _212  and  _215
REMARK   85  A    between atoms: _215  and  _216
REMARK   86  A    between atoms: _216  and  _217
REMARK   87  A    between atoms: _220  and  _222
REMARK   88  A    between atoms: _222  and  _223
REMARK   89  A    between atoms: _222  and  _225
REMARK   90  A    between atoms: _225  and  _226
REMARK   91  A    between atoms: _226  and  _227
REMARK   92  A    between atoms: _232  and  _234
REMARK   93  A    between atoms: _234  and  _235
REMARK   94  A    between atoms: _234  and  _237
REMARK   95  A    between atoms: _237  and  _238
REMARK   96  A    between atoms: _238  and  _239
REMARK   97  A    between atoms: _239  and  _240
REMARK   98  A    between atoms: _240  and  _241
REMARK   99  A    between atoms: _245  and  _247
REMARK  100  A    between atoms: _247  and  _248
REMARK  101  A    between atoms: _251  and  _253
REMARK  102  A    between atoms: _253  and  _254
REMARK  103  A    between atoms: _256  and  _258
REMARK  104  A    between atoms: _258  and  _259
REMARK  105  A    between atoms: _258  and  _261
REMARK  106  A    between atoms: _261  and  _262
REMARK  107  A    between atoms: _267  and  _269
REMARK  108  A    between atoms: _269  and  _270
REMARK  109  A    between atoms: _269  and  _272
REMARK  110  A    between atoms: _272  and  _273
REMARK  111  A    between atoms: _273  and  _274
REMARK  112  A    between atoms: _277  and  _279
REMARK  113  A    between atoms: _279  and  _280
REMARK  114  A    between atoms: _279  and  _282
REMARK  115  A    between atoms: _282  and  _283
REMARK  116  A    between atoms: _283  and  _284
REMARK  117  A    between atoms: _289  and  _291
REMARK  118  A    between atoms: _291  and  _292
REMARK  119  A    between atoms: _291  and  _294
REMARK  120  A    between atoms: _294  and  _295
REMARK  121  A    between atoms: _297  and  _299
REMARK  122  A    between atoms: _299  and  _300
REMARK  123  A    between atoms: _299  and  _302
REMARK  124  A    between atoms: _302  and  _303
REMARK  125  A    between atoms: _309  and  _311
REMARK  126  A    between atoms: _311  and  _312
REMARK  127  A    between atoms: _311  and  _314
REMARK  128  A    between atoms: _314  and  _315
REMARK  129  A    between atoms: _315  and  _316
REMARK  130  A    between atoms: _316  and  _317
REMARK  131  A    between atoms: _326  and  _328
REMARK  132  A    between atoms: _328  and  _329
REMARK  133  A    between atoms: _328  and  _331
REMARK  134  A    between atoms: _334  and  _336
REMARK  135  A    between atoms: _336  and  _337
REMARK  136  A    between atoms: _336  and  _339
REMARK  137  A    between atoms: _339  and  _340
REMARK  138  A    between atoms: _343  and  _345
REMARK  139  A    between atoms: _345  and  _346
REMARK  140  A    between atoms: _345  and  _348
REMARK  141  A    between atoms: _348  and  _349
REMARK  142  A    between atoms: _352  and  _354
REMARK  143  A    between atoms: _354  and  _355
REMARK  144  A    between atoms: _354  and  _357
REMARK  145  A    between atoms: _357  and  _358
REMARK  146  A    between atoms: _358  and  _359
REMARK  147  A    between atoms: _359  and  _360
REMARK  148  A    between atoms: _369  and  _371
REMARK  149  A    between atoms: _371  and  _372
REMARK  150  A    between atoms: _371  and  _374
REMARK  151  A    between atoms: _374  and  _375
REMARK  152  A    between atoms: _378  and  _380
REMARK  153  A    between atoms: _380  and  _381
REMARK  154  A    between atoms: _380  and  _383
REMARK  155  A    between atoms: _383  and  _384
REMARK  156  A    between atoms: _387  and  _389
REMARK  157  A    between atoms: _389  and  _390
REMARK  158  A    between atoms: _389  and  _392
REMARK  159  A    between atoms: _392  and  _393
REMARK  160  A    between atoms: _398  and  _399
REMARK  161  A    between atoms: _401  and  _403
REMARK  162  A    between atoms: _403  and  _404
REMARK  163  A    between atoms: _403  and  _406
REMARK  164  A    between atoms: _406  and  _407
REMARK  165  A    between atoms: _412  and  _413
REMARK  166  A    between atoms: _415  and  _417
REMARK  167  A    between atoms: _417  and  _418
REMARK  168  A    between atoms: _417  and  _420
REMARK  169  A    between atoms: _420  and  _421
REMARK  170  A    between atoms: _424  and  _426
REMARK  171  A    between atoms: _426  and  _427
REMARK  172  A    between atoms: _426  and  _429
REMARK  173  A    between atoms: _429  and  _430
REMARK  174  A    between atoms: _430  and  _431
REMARK  175  A    between atoms: _436  and  _438
REMARK  176  A    between atoms: _438  and  _439
REMARK  177  A    between atoms: _438  and  _441
REMARK  178  A    between atoms: _444  and  _446
REMARK  179  A    between atoms: _446  and  _447
REMARK  180  A    between atoms: _446  and  _449
REMARK  181  A    between atoms: _449  and  _450
REMARK  182  A    between atoms: _453  and  _455
REMARK  183  A    between atoms: _455  and  _456
REMARK  184  A    between atoms: _455  and  _458
REMARK  185  A    between atoms: _458  and  _459
REMARK  186  A    between atoms: _461  and  _463
REMARK  187  A    between atoms: _463  and  _464
REMARK  188  A    between atoms: _466  and  _468
REMARK  189  A    between atoms: _468  and  _469
REMARK  190  A    between atoms: _468  and  _471
REMARK  191  A    between atoms: _471  and  _472
REMARK  192  A    between atoms: _472  and  _774
REMARK  193  A    between atoms: _473  and  _475
REMARK  194  A    between atoms: _475  and  _476
REMARK  195  A    between atoms: _475  and  _478
REMARK  196  A    between atoms: _478  and  _479
REMARK  197  A    between atoms: _484  and  _485
REMARK  198  A    between atoms: _487  and  _489
REMARK  199  A    between atoms: _489  and  _490
REMARK  200  A    between atoms: _489  and  _492
REMARK  201  A    between atoms: _492  and  _493
REMARK  202  A    between atoms: _493  and  _494
REMARK  203  A    between atoms: _499  and  _501
REMARK  204  A    between atoms: _501  and  _502
REMARK  205  A    between atoms: _501  and  _504
REMARK  206  A    between atoms: _504  and  _505
REMARK  207  A    between atoms: _505  and  _506
REMARK  208  A    between atoms: _511  and  _513
REMARK  209  A    between atoms: _513  and  _514
REMARK  210  A    between atoms: _513  and  _516
REMARK  211  A    between atoms: _516  and  _517
REMARK  212  A    between atoms: _522  and  _523
REMARK  213  A    between atoms: _525  and  _527
REMARK  214  A    between atoms: _527  and  _528
REMARK  215  A    between atoms: _531  and  _533
REMARK  216  A    between atoms: _533  and  _534
REMARK  217  A    between atoms: _533  and  _536
REMARK  218  A    between atoms: _536  and  _537
REMARK  219  A    between atoms: _542  and  _543
REMARK  220  A    between atoms: _545  and  _547
REMARK  221  A    between atoms: _547  and  _548
REMARK  222  A    between atoms: _547  and  _550
REMARK  223  A    between atoms: _550  and  _551
REMARK  224  A    between atoms: _556  and  _557
REMARK  225  A    between atoms: _559  and  _561
REMARK  226  A    between atoms: _561  and  _562
REMARK  227  A    between atoms: _561  and  _564
REMARK  228  A    between atoms: _564  and  _565
REMARK  229  A    between atoms: _568  and  _570
REMARK  230  A    between atoms: _570  and  _571
REMARK  231  A    between atoms: _574  and  _576
REMARK  232  A    between atoms: _576  and  _577
REMARK  233  A    between atoms: _580  and  _582
REMARK  234  A    between atoms: _582  and  _583
REMARK  235  A    between atoms: _582  and  _585
REMARK  236  A    between atoms: _585  and  _586
REMARK  237  A    between atoms: _589  and  _591
REMARK  238  A    between atoms: _591  and  _592
REMARK  239  A    between atoms: _591  and  _594
REMARK  240  A    between atoms: _594  and  _595
REMARK  241  A    between atoms: _598  and  _600
REMARK  242  A    between atoms: _600  and  _601
REMARK  243  A    between atoms: _600  and  _603
REMARK  244  A    between atoms: _603  and  _604
REMARK  245  A    between atoms: _607  and  _609
REMARK  246  A    between atoms: _609  and  _610
REMARK  247  A    between atoms: _609  and  _612
REMARK  248  A    between atoms: _612  and  _613
REMARK  249  A    between atoms: _613  and  _614
REMARK  250  A    between atoms: _614  and  _615
REMARK  251  A    between atoms: _615  and  _616
REMARK  252  A    between atoms: _620  and  _622
REMARK  253  A    between atoms: _622  and  _623
REMARK  254  A    between atoms: _622  and  _625
REMARK  255  A    between atoms: _625  and  _626
REMARK  256  A    between atoms: _631  and  _633
REMARK  257  A    between atoms: _633  and  _634
REMARK  258  A    between atoms: _633  and  _636
REMARK  259  A    between atoms: _636  and  _637
REMARK  260  A    between atoms: _637  and  _638
REMARK  261  A    between atoms: _638  and  _639
REMARK  262  A    between atoms: _639  and  _640
REMARK  263  A    between atoms: _644  and  _646
REMARK  264  A    between atoms: _646  and  _647
REMARK  265  A    between atoms: _646  and  _649
REMARK  266  A    between atoms: _649  and  _650
REMARK  267  A    between atoms: _660  and  _662
REMARK  268  A    between atoms: _662  and  _663
REMARK  269  A    between atoms: _666  and  _668
REMARK  270  A    between atoms: _668  and  _669
REMARK  271  A    between atoms: _671  and  _673
REMARK  272  A    between atoms: _673  and  _674
REMARK  273  A    between atoms: _673  and  _676
REMARK  274  A    between atoms: _676  and  _677
REMARK  275  A    between atoms: _677  and  _678
REMARK  276  A    between atoms: _681  and  _683
REMARK  277  A    between atoms: _683  and  _684
REMARK  278  A    between atoms: _687  and  _689
REMARK  279  A    between atoms: _689  and  _690
REMARK  280  A    between atoms: _689  and  _692
REMARK  281  A    between atoms: _692  and  _693
REMARK  282  A    between atoms: _693  and  _694
REMARK  283  A    between atoms: _694  and  _695
REMARK  284  A    between atoms: _704  and  _706
REMARK  285  A    between atoms: _706  and  _707
REMARK  286  A    between atoms: _706  and  _709
REMARK  287  A    between atoms: _709  and  _710
REMARK  288  A    between atoms: _713  and  _715
REMARK  289  A    between atoms: _715  and  _716
REMARK  290  A    between atoms: _715  and  _718
REMARK  291  A    between atoms: _718  and  _719
REMARK  292  A    between atoms: _719  and  _720
REMARK  293  A    between atoms: _720  and  _721
REMARK  294  A    between atoms: _730  and  _732
REMARK  295  A    between atoms: _732  and  _733
REMARK  296  A    between atoms: _736  and  _738
REMARK  297  A    between atoms: _738  and  _739
REMARK  298  A    between atoms: _738  and  _741
REMARK  299  A    between atoms: _741  and  _742
REMARK  300  A    between atoms: _747  and  _748
REMARK  301  A    between atoms: _750  and  _752
REMARK  302  A    between atoms: _752  and  _753
REMARK  303  A    between atoms: _752  and  _755
REMARK  304  A    between atoms: _755  and  _756
REMARK  305  A    between atoms: _759  and  _761
REMARK  306  A    between atoms: _761  and  _762
REMARK  307  A    between atoms: _761  and  _764
REMARK  308  A    between atoms: _764  and  _765
REMARK  309  A    between atoms: _768  and  _770
REMARK  310  A    between atoms: _770  and  _771
REMARK  311  A    between atoms: _770  and  _773
REMARK  312  A    between atoms: _773  and  _774
REMARK  313  A    between atoms: _775  and  _777
REMARK  314  A    between atoms: _777  and  _778
REMARK  315  A    between atoms: _777  and  _780
REMARK  316  A    between atoms: _783  and  _785
REMARK  317  A    between atoms: _785  and  _786
REMARK  318  A    between atoms: _785  and  _788
REMARK  319  A    between atoms: _788  and  _789
REMARK  320  A    between atoms: _789  and  _790
REMARK  321  A    between atoms: _793  and  _795
REMARK  322  A    between atoms: _795  and  _796
REMARK  323  A    between atoms: _795  and  _798
REMARK  324  A    between atoms: _798  and  _799
REMARK  325  A    between atoms: _809  and  _811
REMARK  326  A    between atoms: _811  and  _812
REMARK  327  A    between atoms: _811  and  _814
REMARK  328  A    between atoms: _814  and  _815
REMARK  329  A    between atoms: _818  and  _820
REMARK  330  A    between atoms: _820  and  _821
REMARK  331  A    between atoms: _820  and  _823
REMARK  332  A    between atoms: _823  and  _824
REMARK  333  A    between atoms: _829  and  _830
REMARK                            x       y       z     vdW  Elec       q    Type
REMARK                         _______ _______ _______ _____ _____    ______ ____
ROOT
ATOM      1  O   HOH     1     -22.170  12.899  31.509  0.00  0.00    +0.000 OA
ENDROOT
TORSDOF 0
REMARK  Name = ../refined-set-2016/3p9l/3p9l_pocket.pdb
REMARK  333 active torsions:
REMARK  status: ('A' for Active; 'I' for Inactive)
REMARK    1  A    between atoms: _1  and  _3
REMARK    2  A    between atoms: _3  and  _4
REMARK    3  A    between atoms: _3  and  _6
REMARK    4  A    between atoms: _6  and  _7
REMARK    5  A    between atoms: _10  and  _12
REMARK    6  A    between atoms: _12  and  _13
REMARK    7  A    between atoms: _12  and  _15
REMARK    8  A    between atoms: _15  and  _16
REMARK    9  A    between atoms: _16  and  _17
REMARK   10  A    between atoms: _17  and  _18
REMARK   11  A    between atoms: _27  and  _29
REMARK   12  A    between atoms: _29  and  _30
REMARK   13  A    between atoms: _29  and  _32
REMARK   14  A    between atoms: _32  and  _33
REMARK   15  A    between atoms: _38  and  _39
REMARK   16  A    between atoms: _41  and  _43
REMARK   17  A    between atoms: _43  and  _44
REMARK   18  A    between atoms: _43  and  _46
REMARK   19  A    between atoms: _46  and  _47
REMARK   20  A    between atoms: _53  and  _55
REMARK   21  A    between atoms: _55  and  _56
REMARK   22  A    between atoms: _55  and  _58
REMARK   23  A    between atoms: _61  and  _63
REMARK   24  A    between atoms: _63  and  _64
REMARK   25  A    between atoms: _63  and  _66
REMARK   26  A    between atoms: _66  and  _67
REMARK   27  A    between atoms: _70  and  _72
REMARK   28  A    between atoms: _72  and  _73
REMARK   29  A    between atoms: _72  and  _75
REMARK   30  A    between atoms: _75  and  _76
REMARK   31  A    between atoms: _81  and  _82
REMARK   32  A    between atoms: _84  and  _86
REMARK   33  A    between atoms: _86  and  _87
REMARK   34  A    between atoms: _86  and  _89
REMARK   35  A    between atoms: _89  and  _90
REMARK   36  A    between atoms: _90  and  _91
REMARK   37  A    between atoms: _93  and  _95
REMARK   38  A    between atoms: _95  and  _96
REMARK   39  A    between atoms: _95  and  _98
REMARK   40  A    between atoms: _98  and  _99
REMARK   41  A    between atoms: _99  and  _100
REMARK   42  A    between atoms: _103  and  _105
REMARK   43  A    between atoms: _105  and  _106
REMARK   44  A    between atoms: _105  and  _108
REMARK   45  A    between atoms: _111  and  _113
REMARK   46  A    between atoms: _113  and  _114
REMARK   47  A    between atoms: _116  and  _118
REMARK   48  A    between atoms: _118  and  _119
REMARK   49  A    between atoms: _118  and  _121
REMARK   50  A    between atoms: _124  and  _126
REMARK   51  A    between atoms: _126  and  _127
REMARK   52  A    between atoms: _126  and  _129
REMARK   53  A    between atoms: _129  and  _130
REMARK   54  A    between atoms: _136  and  _138
REMARK   55  A    between atoms: _138  and  _139
REMARK   56  A    between atoms: _138  and  _141
REMARK   57  A    between atoms: _144  and  _146
REMARK   58  A    between atoms: _146  and  _147
REMARK   59  A    between atoms: _146  and  _149
REMARK   60  A    between atoms: _149  and  _150
REMARK   61  A    between atoms: _156  and  _158
REMARK   62  A    between atoms: _158  and  _159
REMARK   63  A    between atoms: _158  and  _161
REMARK   64  A    between atoms: _161  and  _162
REMARK   65  A    between atoms: _167  and  _168
REMARK   66  A    between atoms: _170  and  _172
REMARK   67  A    between atoms: _172  and  _173
REMARK   68  A    between atoms: _172  and  _175
REMARK   69  A    between atoms: _175  and  _176
REMARK   70  A    between atoms: _176  and  _177
REMARK   71  A    between atoms: _179  and  _181
REMARK   72  A    between atoms: _181  and  _182
REMARK   73  A    between atoms: _181  and  _184
REMARK   74  A    between atoms: _184  and  _185
REMARK   75  A    between atoms: _190  and  _191
REMARK   76  A    between atoms: _193  and  _195
REMARK   77  A    between atoms: _195  and  _196
REMARK   78  A    between atoms: _195  and  _198
REMARK   79  A    between atoms: _198  and  _199
REMARK   80  A    between atoms: _199  and  _200
REMARK   81  A    between atoms: _200  and  _201
REMARK   82  A    between atoms: _210  and  _212
REMARK   83  A    between atoms: _212  and  _213
REMARK   84  A    between atoms: _212  and  _215
REMARK   85  A    between atoms: _215  and  _216
REMARK   86  A    between atoms: _216  and  _217
REMARK   87  A    between atoms: _220  and  _222
REMARK   88  A    between atoms: _222  and  _223
REMARK   89  A    between atoms: _222  and  _225
REMARK   90  A    between atoms: _225  and  _226
REMARK   91  A    between atoms: _226  and  _227
REMARK   92  A    between atoms: _232  and  _234
REMARK   93  A    between atoms: _234  and  _235
REMARK   94  A    between atoms: _234  and  _237
REMARK   95  A    between atoms: _237  and  _238
REMARK   96  A    between atoms: _238  and  _239
REMARK   97  A    between atoms: _239  and  _240
REMARK   98  A    between atoms: _240  and  _241
REMARK   99  A    between atoms: _245  and  _247
REMARK  100  A    between atoms: _247  and  _248
REMARK  101  A    between atoms: _251  and  _253
REMARK  102  A    between atoms: _253  and  _254
REMARK  103  A    between atoms: _256  and  _258
REMARK  104  A    between atoms: _258  and  _259
REMARK  105  A    between atoms: _258  and  _261
REMARK  106  A    between atoms: _261  and  _262
REMARK  107  A    between atoms: _267  and  _269
REMARK  108  A    between atoms: _269  and  _270
REMARK  109  A    between atoms: _269  and  _272
REMARK  110  A    between atoms: _272  and  _273
REMARK  111  A    between atoms: _273  and  _274
REMARK  112  A    between atoms: _277  and  _279
REMARK  113  A    between atoms: _279  and  _280
REMARK  114  A    between atoms: _279  and  _282
REMARK  115  A    between atoms: _282  and  _283
REMARK  116  A    between atoms: _283  and  _284
REMARK  117  A    between atoms: _289  and  _291
REMARK  118  A    between atoms: _291  and  _292
REMARK  119  A    between atoms: _291  and  _294
REMARK  120  A    between atoms: _294  and  _295
REMARK  121  A    between atoms: _297  and  _299
REMARK  122  A    between atoms: _299  and  _300
REMARK  123  A    between atoms: _299  and  _302
REMARK  124  A    between atoms: _302  and  _303
REMARK  125  A    between atoms: _309  and  _311
REMARK  126  A    between atoms: _311  and  _312
REMARK  127  A    between atoms: _311  and  _314
REMARK  128  A    between atoms: _314  and  _315
REMARK  129  A    between atoms: _315  and  _316
REMARK  130  A    between atoms: _316  and  _317
REMARK  131  A    between atoms: _326  and  _328
REMARK  132  A    between atoms: _328  and  _329
REMARK  133  A    between atoms: _328  and  _331
REMARK  134  A    between atoms: _334  and  _336
REMARK  135  A    between atoms: _336  and  _337
REMARK  136  A    between atoms: _336  and  _339
REMARK  137  A    between atoms: _339  and  _340
REMARK  138  A    between atoms: _343  and  _345
REMARK  139  A    between atoms: _345  and  _346
REMARK  140  A    between atoms: _345  and  _348
REMARK  141  A    between atoms: _348  and  _349
REMARK  142  A    between atoms: _352  and  _354
REMARK  143  A    between atoms: _354  and  _355
REMARK  144  A    between atoms: _354  and  _357
REMARK  145  A    between atoms: _357  and  _358
REMARK  146  A    between atoms: _358  and  _359
REMARK  147  A    between atoms: _359  and  _360
REMARK  148  A    between atoms: _369  and  _371
REMARK  149  A    between atoms: _371  and  _372
REMARK  150  A    between atoms: _371  and  _374
REMARK  151  A    between atoms: _374  and  _375
REMARK  152  A    between atoms: _378  and  _380
REMARK  153  A    between atoms: _380  and  _381
REMARK  154  A    between atoms: _380  and  _383
REMARK  155  A    between atoms: _383  and  _384
REMARK  156  A    between atoms: _387  and  _389
REMARK  157  A    between atoms: _389  and  _390
REMARK  158  A    between atoms: _389  and  _392
REMARK  159  A    between atoms: _392  and  _393
REMARK  160  A    between atoms: _398  and  _399
REMARK  161  A    between atoms: _401  and  _403
REMARK  162  A    between atoms: _403  and  _404
REMARK  163  A    between atoms: _403  and  _406
REMARK  164  A    between atoms: _406  and  _407
REMARK  165  A    between atoms: _412  and  _413
REMARK  166  A    between atoms: _415  and  _417
REMARK  167  A    between atoms: _417  and  _418
REMARK  168  A    between atoms: _417  and  _420
REMARK  169  A    between atoms: _420  and  _421
REMARK  170  A    between atoms: _424  and  _426
REMARK  171  A    between atoms: _426  and  _427
REMARK  172  A    between atoms: _426  and  _429
REMARK  173  A    between atoms: _429  and  _430
REMARK  174  A    between atoms: _430  and  _431
REMARK  175  A    between atoms: _436  and  _438
REMARK  176  A    between atoms: _438  and  _439
REMARK  177  A    between atoms: _438  and  _441
REMARK  178  A    between atoms: _444  and  _446
REMARK  179  A    between atoms: _446  and  _447
REMARK  180  A    between atoms: _446  and  _449
REMARK  181  A    between atoms: _449  and  _450
REMARK  182  A    between atoms: _453  and  _455
REMARK  183  A    between atoms: _455  and  _456
REMARK  184  A    between atoms: _455  and  _458
REMARK  185  A    between atoms: _458  and  _459
REMARK  186  A    between atoms: _461  and  _463
REMARK  187  A    between atoms: _463  and  _464
REMARK  188  A    between atoms: _466  and  _468
REMARK  189  A    between atoms: _468  and  _469
REMARK  190  A    between atoms: _468  and  _471
REMARK  191  A    between atoms: _471  and  _472
REMARK  192  A    between atoms: _472  and  _774
REMARK  193  A    between atoms: _473  and  _475
REMARK  194  A    between atoms: _475  and  _476
REMARK  195  A    between atoms: _475  and  _478
REMARK  196  A    between atoms: _478  and  _479
REMARK  197  A    between atoms: _484  and  _485
REMARK  198  A    between atoms: _487  and  _489
REMARK  199  A    between atoms: _489  and  _490
REMARK  200  A    between atoms: _489  and  _492
REMARK  201  A    between atoms: _492  and  _493
REMARK  202  A    between atoms: _493  and  _494
REMARK  203  A    between atoms: _499  and  _501
REMARK  204  A    between atoms: _501  and  _502
REMARK  205  A    between atoms: _501  and  _504
REMARK  206  A    between atoms: _504  and  _505
REMARK  207  A    between atoms: _505  and  _506
REMARK  208  A    between atoms: _511  and  _513
REMARK  209  A    between atoms: _513  and  _514
REMARK  210  A    between atoms: _513  and  _516
REMARK  211  A    between atoms: _516  and  _517
REMARK  212  A    between atoms: _522  and  _523
REMARK  213  A    between atoms: _525  and  _527
REMARK  214  A    between atoms: _527  and  _528
REMARK  215  A    between atoms: _531  and  _533
REMARK  216  A    between atoms: _533  and  _534
REMARK  217  A    between atoms: _533  and  _536
REMARK  218  A    between atoms: _536  and  _537
REMARK  219  A    between atoms: _542  and  _543
REMARK  220  A    between atoms: _545  and  _547
REMARK  221  A    between atoms: _547  and  _548
REMARK  222  A    between atoms: _547  and  _550
REMARK  223  A    between atoms: _550  and  _551
REMARK  224  A    between atoms: _556  and  _557
REMARK  225  A    between atoms: _559  and  _561
REMARK  226  A    between atoms: _561  and  _562
REMARK  227  A    between atoms: _561  and  _564
REMARK  228  A    between atoms: _564  and  _565
REMARK  229  A    between atoms: _568  and  _570
REMARK  230  A    between atoms: _570  and  _571
REMARK  231  A    between atoms: _574  and  _576
REMARK  232  A    between atoms: _576  and  _577
REMARK  233  A    between atoms: _580  and  _582
REMARK  234  A    between atoms: _582  and  _583
REMARK  235  A    between atoms: _582  and  _585
REMARK  236  A    between atoms: _585  and  _586
REMARK  237  A    between atoms: _589  and  _591
REMARK  238  A    between atoms: _591  and  _592
REMARK  239  A    between atoms: _591  and  _594
REMARK  240  A    between atoms: _594  and  _595
REMARK  241  A    between atoms: _598  and  _600
REMARK  242  A    between atoms: _600  and  _601
REMARK  243  A    between atoms: _600  and  _603
REMARK  244  A    between atoms: _603  and  _604
REMARK  245  A    between atoms: _607  and  _609
REMARK  246  A    between atoms: _609  and  _610
REMARK  247  A    between atoms: _609  and  _612
REMARK  248  A    between atoms: _612  and  _613
REMARK  249  A    between atoms: _613  and  _614
REMARK  250  A    between atoms: _614  and  _615
REMARK  251  A    between atoms: _615  and  _616
REMARK  252  A    between atoms: _620  and  _622
REMARK  253  A    between atoms: _622  and  _623
REMARK  254  A    between atoms: _622  and  _625
REMARK  255  A    between atoms: _625  and  _626
REMARK  256  A    between atoms: _631  and  _633
REMARK  257  A    between atoms: _633  and  _634
REMARK  258  A    between atoms: _633  and  _636
REMARK  259  A    between atoms: _636  and  _637
REMARK  260  A    between atoms: _637  and  _638
REMARK  261  A    between atoms: _638  and  _639
REMARK  262  A    between atoms: _639  and  _640
REMARK  263  A    between atoms: _644  and  _646
REMARK  264  A    between atoms: _646  and  _647
REMARK  265  A    between atoms: _646  and  _649
REMARK  266  A    between atoms: _649  and  _650
REMARK  267  A    between atoms: _660  and  _662
REMARK  268  A    between atoms: _662  and  _663
REMARK  269  A    between atoms: _666  and  _668
REMARK  270  A    between atoms: _668  and  _669
REMARK  271  A    between atoms: _671  and  _673
REMARK  272  A    between atoms: _673  and  _674
REMARK  273  A    between atoms: _673  and  _676
REMARK  274  A    between atoms: _676  and  _677
REMARK  275  A    between atoms: _677  and  _678
REMARK  276  A    between atoms: _681  and  _683
REMARK  277  A    between atoms: _683  and  _684
REMARK  278  A    between atoms: _687  and  _689
REMARK  279  A    between atoms: _689  and  _690
REMARK  280  A    between atoms: _689  and  _692
REMARK  281  A    between atoms: _692  and  _693
REMARK  282  A    between atoms: _693  and  _694
REMARK  283  A    between atoms: _694  and  _695
REMARK  284  A    between atoms: _704  and  _706
REMARK  285  A    between atoms: _706  and  _707
REMARK  286  A    between atoms: _706  and  _709
REMARK  287  A    between atoms: _709  and  _710
REMARK  288  A    between atoms: _713  and  _715
REMARK  289  A    between atoms: _715  and  _716
REMARK  290  A    between atoms: _715  and  _718
REMARK  291  A    between atoms: _718  and  _719
REMARK  292  A    between atoms: _719  and  _720
REMARK  293  A    between atoms: _720  and  _721
REMARK  294  A    between atoms: _730  and  _732
REMARK  295  A    between atoms: _732  and  _733
REMARK  296  A    between atoms: _736  and  _738
REMARK  297  A    between atoms: _738  and  _739
REMARK  298  A    between atoms: _738  and  _741
REMARK  299  A    between atoms: _741  and  _742
REMARK  300  A    between atoms: _747  and  _748
REMARK  301  A    between atoms: _750  and  _752
REMARK  302  A    between atoms: _752  and  _753
REMARK  303  A    between atoms: _752  and  _755
REMARK  304  A    between atoms: _755  and  _756
REMARK  305  A    between atoms: _759  and  _761
REMARK  306  A    between atoms: _761  and  _762
REMARK  307  A    between atoms: _761  and  _764
REMARK  308  A    between atoms: _764  and  _765
REMARK  309  A    between atoms: _768  and  _770
REMARK  310  A    between atoms: _770  and  _771
REMARK  311  A    between atoms: _770  and  _773
REMARK  312  A    between atoms: _773  and  _774
REMARK  313  A    between atoms: _775  and  _777
REMARK  314  A    between atoms: _777  and  _778
REMARK  315  A    between atoms: _777  and  _780
REMARK  316  A    between atoms: _783  and  _785
REMARK  317  A    between atoms: _785  and  _786
REMARK  318  A    between atoms: _785  and  _788
REMARK  319  A    between atoms: _788  and  _789
REMARK  320  A    between atoms: _789  and  _790
REMARK  321  A    between atoms: _793  and  _795
REMARK  322  A    between atoms: _795  and  _796
REMARK  323  A    between atoms: _795  and  _798
REMARK  324  A    between atoms: _798  and  _799
REMARK  325  A    between atoms: _809  and  _811
REMARK  326  A    between atoms: _811  and  _812
REMARK  327  A    between atoms: _811  and  _814
REMARK  328  A    between atoms: _814  and  _815
REMARK  329  A    between atoms: _818  and  _820
REMARK  330  A    between atoms: _820  and  _821
REMARK  331  A    between atoms: _820  and  _823
REMARK  332  A    between atoms: _823  and  _824
REMARK  333  A    between atoms: _829  and  _830
REMARK                            x       y       z     vdW  Elec       q    Type
REMARK                         _______ _______ _______ _____ _____    ______ ____
ROOT
ATOM      1  O   HOH     1     -20.737  16.406  34.800  0.00  0.00    +0.000 OA
ENDROOT
TORSDOF 0
REMARK  Name = ../refined-set-2016/3p9l/3p9l_pocket.pdb
REMARK  333 active torsions:
REMARK  status: ('A' for Active; 'I' for Inactive)
REMARK    1  A    between atoms: _1  and  _3
REMARK    2  A    between atoms: _3  and  _4
REMARK    3  A    between atoms: _3  and  _6
REMARK    4  A    between atoms: _6  and  _7
REMARK    5  A    between atoms: _10  and  _12
REMARK    6  A    between atoms: _12  and  _13
REMARK    7  A    between atoms: _12  and  _15
REMARK    8  A    between atoms: _15  and  _16
REMARK    9  A    between atoms: _16  and  _17
REMARK   10  A    between atoms: _17  and  _18
REMARK   11  A    between atoms: _27  and  _29
REMARK   12  A    between atoms: _29  and  _30
REMARK   13  A    between atoms: _29  and  _32
REMARK   14  A    between atoms: _32  and  _33
REMARK   15  A    between atoms: _38  and  _39
REMARK   16  A    between atoms: _41  and  _43
REMARK   17  A    between atoms: _43  and  _44
REMARK   18  A    between atoms: _43  and  _46
REMARK   19  A    between atoms: _46  and  _47
REMARK   20  A    between atoms: _53  and  _55
REMARK   21  A    between atoms: _55  and  _56
REMARK   22  A    between atoms: _55  and  _58
REMARK   23  A    between atoms: _61  and  _63
REMARK   24  A    between atoms: _63  and  _64
REMARK   25  A    between atoms: _63  and  _66
REMARK   26  A    between atoms: _66  and  _67
REMARK   27  A    between atoms: _70  and  _72
REMARK   28  A    between atoms: _72  and  _73
REMARK   29  A    between atoms: _72  and  _75
REMARK   30  A    between atoms: _75  and  _76
REMARK   31  A    between atoms: _81  and  _82
REMARK   32  A    between atoms: _84  and  _86
REMARK   33  A    between atoms: _86  and  _87
REMARK   34  A    between atoms: _86  and  _89
REMARK   35  A    between atoms: _89  and  _90
REMARK   36  A    between atoms: _90  and  _91
REMARK   37  A    between atoms: _93  and  _95
REMARK   38  A    between atoms: _95  and  _96
REMARK   39  A    between atoms: _95  and  _98
REMARK   40  A    between atoms: _98  and  _99
REMARK   41  A    between atoms: _99  and  _100
REMARK   42  A    between atoms: _103  and  _105
REMARK   43  A    between atoms: _105  and  _106
REMARK   44  A    between atoms: _105  and  _108
REMARK   45  A    between atoms: _111  and  _113
REMARK   46  A    between atoms: _113  and  _114
REMARK   47  A    between atoms: _116  and  _118
REMARK   48  A    between atoms: _118  and  _119
REMARK   49  A    between atoms: _118  and  _121
REMARK   50  A    between atoms: _124  and  _126
REMARK   51  A    between atoms: _126  and  _127
REMARK   52  A    between atoms: _126  and  _129
REMARK   53  A    between atoms: _129  and  _130
REMARK   54  A    between atoms: _136  and  _138
REMARK   55  A    between atoms: _138  and  _139
REMARK   56  A    between atoms: _138  and  _141
REMARK   57  A    between atoms: _144  and  _146
REMARK   58  A    between atoms: _146  and  _147
REMARK   59  A    between atoms: _146  and  _149
REMARK   60  A    between atoms: _149  and  _150
REMARK   61  A    between atoms: _156  and  _158
REMARK   62  A    between atoms: _158  and  _159
REMARK   63  A    between atoms: _158  and  _161
REMARK   64  A    between atoms: _161  and  _162
REMARK   65  A    between atoms: _167  and  _168
REMARK   66  A    between atoms: _170  and  _172
REMARK   67  A    between atoms: _172  and  _173
REMARK   68  A    between atoms: _172  and  _175
REMARK   69  A    between atoms: _175  and  _176
REMARK   70  A    between atoms: _176  and  _177
REMARK   71  A    between atoms: _179  and  _181
REMARK   72  A    between atoms: _181  and  _182
REMARK   73  A    between atoms: _181  and  _184
REMARK   74  A    between atoms: _184  and  _185
REMARK   75  A    between atoms: _190  and  _191
REMARK   76  A    between atoms: _193  and  _195
REMARK   77  A    between atoms: _195  and  _196
REMARK   78  A    between atoms: _195  and  _198
REMARK   79  A    between atoms: _198  and  _199
REMARK   80  A    between atoms: _199  and  _200
REMARK   81  A    between atoms: _200  and  _201
REMARK   82  A    between atoms: _210  and  _212
REMARK   83  A    between atoms: _212  and  _213
REMARK   84  A    between atoms: _212  and  _215
REMARK   85  A    between atoms: _215  and  _216
REMARK   86  A    between atoms: _216  and  _217
REMARK   87  A    between atoms: _220  and  _222
REMARK   88  A    between atoms: _222  and  _223
REMARK   89  A    between atoms: _222  and  _225
REMARK   90  A    between atoms: _225  and  _226
REMARK   91  A    between atoms: _226  and  _227
REMARK   92  A    between atoms: _232  and  _234
REMARK   93  A    between atoms: _234  and  _235
REMARK   94  A    between atoms: _234  and  _237
REMARK   95  A    between atoms: _237  and  _238
REMARK   96  A    between atoms: _238  and  _239
REMARK   97  A    between atoms: _239  and  _240
REMARK   98  A    between atoms: _240  and  _241
REMARK   99  A    between atoms: _245  and  _247
REMARK  100  A    between atoms: _247  and  _248
REMARK  101  A    between atoms: _251  and  _253
REMARK  102  A    between atoms: _253  and  _254
REMARK  103  A    between atoms: _256  and  _258
REMARK  104  A    between atoms: _258  and  _259
REMARK  105  A    between atoms: _258  and  _261
REMARK  106  A    between atoms: _261  and  _262
REMARK  107  A    between atoms: _267  and  _269
REMARK  108  A    between atoms: _269  and  _270
REMARK  109  A    between atoms: _269  and  _272
REMARK  110  A    between atoms: _272  and  _273
REMARK  111  A    between atoms: _273  and  _274
REMARK  112  A    between atoms: _277  and  _279
REMARK  113  A    between atoms: _279  and  _280
REMARK  114  A    between atoms: _279  and  _282
REMARK  115  A    between atoms: _282  and  _283
REMARK  116  A    between atoms: _283  and  _284
REMARK  117  A    between atoms: _289  and  _291
REMARK  118  A    between atoms: _291  and  _292
REMARK  119  A    between atoms: _291  and  _294
REMARK  120  A    between atoms: _294  and  _295
REMARK  121  A    between atoms: _297  and  _299
REMARK  122  A    between atoms: _299  and  _300
REMARK  123  A    between atoms: _299  and  _302
REMARK  124  A    between atoms: _302  and  _303
REMARK  125  A    between atoms: _309  and  _311
REMARK  126  A    between atoms: _311  and  _312
REMARK  127  A    between atoms: _311  and  _314
REMARK  128  A    between atoms: _314  and  _315
REMARK  129  A    between atoms: _315  and  _316
REMARK  130  A    between atoms: _316  and  _317
REMARK  131  A    between atoms: _326  and  _328
REMARK  132  A    between atoms: _328  and  _329
REMARK  133  A    between atoms: _328  and  _331
REMARK  134  A    between atoms: _334  and  _336
REMARK  135  A    between atoms: _336  and  _337
REMARK  136  A    between atoms: _336  and  _339
REMARK  137  A    between atoms: _339  and  _340
REMARK  138  A    between atoms: _343  and  _345
REMARK  139  A    between atoms: _345  and  _346
REMARK  140  A    between atoms: _345  and  _348
REMARK  141  A    between atoms: _348  and  _349
REMARK  142  A    between atoms: _352  and  _354
REMARK  143  A    between atoms: _354  and  _355
REMARK  144  A    between atoms: _354  and  _357
REMARK  145  A    between atoms: _357  and  _358
REMARK  146  A    between atoms: _358  and  _359
REMARK  147  A    between atoms: _359  and  _360
REMARK  148  A    between atoms: _369  and  _371
REMARK  149  A    between atoms: _371  and  _372
REMARK  150  A    between atoms: _371  and  _374
REMARK  151  A    between atoms: _374  and  _375
REMARK  152  A    between atoms: _378  and  _380
REMARK  153  A    between atoms: _380  and  _381
REMARK  154  A    between atoms: _380  and  _383
REMARK  155  A    between atoms: _383  and  _384
REMARK  156  A    between atoms: _387  and  _389
REMARK  157  A    between atoms: _389  and  _390
REMARK  158  A    between atoms: _389  and  _392
REMARK  159  A    between atoms: _392  and  _393
REMARK  160  A    between atoms: _398  and  _399
REMARK  161  A    between atoms: _401  and  _403
REMARK  162  A    between atoms: _403  and  _404
REMARK  163  A    between atoms: _403  and  _406
REMARK  164  A    between atoms: _406  and  _407
REMARK  165  A    between atoms: _412  and  _413
REMARK  166  A    between atoms: _415  and  _417
REMARK  167  A    between atoms: _417  and  _418
REMARK  168  A    between atoms: _417  and  _420
REMARK  169  A    between atoms: _420  and  _421
REMARK  170  A    between atoms: _424  and  _426
REMARK  171  A    between atoms: _426  and  _427
REMARK  172  A    between atoms: _426  and  _429
REMARK  173  A    between atoms: _429  and  _430
REMARK  174  A    between atoms: _430  and  _431
REMARK  175  A    between atoms: _436  and  _438
REMARK  176  A    between atoms: _438  and  _439
REMARK  177  A    between atoms: _438  and  _441
REMARK  178  A    between atoms: _444  and  _446
REMARK  179  A    between atoms: _446  and  _447
REMARK  180  A    between atoms: _446  and  _449
REMARK  181  A    between atoms: _449  and  _450
REMARK  182  A    between atoms: _453  and  _455
REMARK  183  A    between atoms: _455  and  _456
REMARK  184  A    between atoms: _455  and  _458
REMARK  185  A    between atoms: _458  and  _459
REMARK  186  A    between atoms: _461  and  _463
REMARK  187  A    between atoms: _463  and  _464
REMARK  188  A    between atoms: _466  and  _468
REMARK  189  A    between atoms: _468  and  _469
REMARK  190  A    between atoms: _468  and  _471
REMARK  191  A    between atoms: _471  and  _472
REMARK  192  A    between atoms: _472  and  _774
REMARK  193  A    between atoms: _473  and  _475
REMARK  194  A    between atoms: _475  and  _476
REMARK  195  A    between atoms: _475  and  _478
REMARK  196  A    between atoms: _478  and  _479
REMARK  197  A    between atoms: _484  and  _485
REMARK  198  A    between atoms: _487  and  _489
REMARK  199  A    between atoms: _489  and  _490
REMARK  200  A    between atoms: _489  and  _492
REMARK  201  A    between atoms: _492  and  _493
REMARK  202  A    between atoms: _493  and  _494
REMARK  203  A    between atoms: _499  and  _501
REMARK  204  A    between atoms: _501  and  _502
REMARK  205  A    between atoms: _501  and  _504
REMARK  206  A    between atoms: _504  and  _505
REMARK  207  A    between atoms: _505  and  _506
REMARK  208  A    between atoms: _511  and  _513
REMARK  209  A    between atoms: _513  and  _514
REMARK  210  A    between atoms: _513  and  _516
REMARK  211  A    between atoms: _516  and  _517
REMARK  212  A    between atoms: _522  and  _523
REMARK  213  A    between atoms: _525  and  _527
REMARK  214  A    between atoms: _527  and  _528
REMARK  215  A    between atoms: _531  and  _533
REMARK  216  A    between atoms: _533  and  _534
REMARK  217  A    between atoms: _533  and  _536
REMARK  218  A    between atoms: _536  and  _537
REMARK  219  A    between atoms: _542  and  _543
REMARK  220  A    between atoms: _545  and  _547
REMARK  221  A    between atoms: _547  and  _548
REMARK  222  A    between atoms: _547  and  _550
REMARK  223  A    between atoms: _550  and  _551
REMARK  224  A    between atoms: _556  and  _557
REMARK  225  A    between atoms: _559  and  _561
REMARK  226  A    between atoms: _561  and  _562
REMARK  227  A    between atoms: _561  and  _564
REMARK  228  A    between atoms: _564  and  _565
REMARK  229  A    between atoms: _568  and  _570
REMARK  230  A    between atoms: _570  and  _571
REMARK  231  A    between atoms: _574  and  _576
REMARK  232  A    between atoms: _576  and  _577
REMARK  233  A    between atoms: _580  and  _582
REMARK  234  A    between atoms: _582  and  _583
REMARK  235  A    between atoms: _582  and  _585
REMARK  236  A    between atoms: _585  and  _586
REMARK  237  A    between atoms: _589  and  _591
REMARK  238  A    between atoms: _591  and  _592
REMARK  239  A    between atoms: _591  and  _594
REMARK  240  A    between atoms: _594  and  _595
REMARK  241  A    between atoms: _598  and  _600
REMARK  242  A    between atoms: _600  and  _601
REMARK  243  A    between atoms: _600  and  _603
REMARK  244  A    between atoms: _603  and  _604
REMARK  245  A    between atoms: _607  and  _609
REMARK  246  A    between atoms: _609  and  _610
REMARK  247  A    between atoms: _609  and  _612
REMARK  248  A    between atoms: _612  and  _613
REMARK  249  A    between atoms: _613  and  _614
REMARK  250  A    between atoms: _614  and  _615
REMARK  251  A    between atoms: _615  and  _616
REMARK  252  A    between atoms: _620  and  _622
REMARK  253  A    between atoms: _622  and  _623
REMARK  254  A    between atoms: _622  and  _625
REMARK  255  A    between atoms: _625  and  _626
REMARK  256  A    between atoms: _631  and  _633
REMARK  257  A    between atoms: _633  and  _634
REMARK  258  A    between atoms: _633  and  _636
REMARK  259  A    between atoms: _636  and  _637
REMARK  260  A    between atoms: _637  and  _638
REMARK  261  A    between atoms: _638  and  _639
REMARK  262  A    between atoms: _639  and  _640
REMARK  263  A    between atoms: _644  and  _646
REMARK  264  A    between atoms: _646  and  _647
REMARK  265  A    between atoms: _646  and  _649
REMARK  266  A    between atoms: _649  and  _650
REMARK  267  A    between atoms: _660  and  _662
REMARK  268  A    between atoms: _662  and  _663
REMARK  269  A    between atoms: _666  and  _668
REMARK  270  A    between atoms: _668  and  _669
REMARK  271  A    between atoms: _671  and  _673
REMARK  272  A    between atoms: _673  and  _674
REMARK  273  A    between atoms: _673  and  _676
REMARK  274  A    between atoms: _676  and  _677
REMARK  275  A    between atoms: _677  and  _678
REMARK  276  A    between atoms: _681  and  _683
REMARK  277  A    between atoms: _683  and  _684
REMARK  278  A    between atoms: _687  and  _689
REMARK  279  A    between atoms: _689  and  _690
REMARK  280  A    between atoms: _689  and  _692
REMARK  281  A    between atoms: _692  and  _693
REMARK  282  A    between atoms: _693  and  _694
REMARK  283  A    between atoms: _694  and  _695
REMARK  284  A    between atoms: _704  and  _706
REMARK  285  A    between atoms: _706  and  _707
REMARK  286  A    between atoms: _706  and  _709
REMARK  287  A    between atoms: _709  and  _710
REMARK  288  A    between atoms: _713  and  _715
REMARK  289  A    between atoms: _715  and  _716
REMARK  290  A    between atoms: _715  and  _718
REMARK  291  A    between atoms: _718  and  _719
REMARK  292  A    between atoms: _719  and  _720
REMARK  293  A    between atoms: _720  and  _721
REMARK  294  A    between atoms: _730  and  _732
REMARK  295  A    between atoms: _732  and  _733
REMARK  296  A    between atoms: _736  and  _738
REMARK  297  A    between atoms: _738  and  _739
REMARK  298  A    between atoms: _738  and  _741
REMARK  299  A    between atoms: _741  and  _742
REMARK  300  A    between atoms: _747  and  _748
REMARK  301  A    between atoms: _750  and  _752
REMARK  302  A    between atoms: _752  and  _753
REMARK  303  A    between atoms: _752  and  _755
REMARK  304  A    between atoms: _755  and  _756
REMARK  305  A    between atoms: _759  and  _761
REMARK  306  A    between atoms: _761  and  _762
REMARK  307  A    between atoms: _761  and  _764
REMARK  308  A    between atoms: _764  and  _765
REMARK  309  A    between atoms: _768  and  _770
REMARK  310  A    between atoms: _770  and  _771
REMARK  311  A    between atoms: _770  and  _773
REMARK  312  A    between atoms: _773  and  _774
REMARK  313  A    between atoms: _775  and  _777
REMARK  314  A    between atoms: _777  and  _778
REMARK  315  A    between atoms: _777  and  _780
REMARK  316  A    between atoms: _783  and  _785
REMARK  317  A    between atoms: _785  and  _786
REMARK  318  A    between atoms: _785  and  _788
REMARK  319  A    between atoms: _788  and  _789
REMARK  320  A    between atoms: _789  and  _790
REMARK  321  A    between atoms: _793  and  _795
REMARK  322  A    between atoms: _795  and  _796
REMARK  323  A    between atoms: _795  and  _798
REMARK  324  A    between atoms: _798  and  _799
REMARK  325  A    between atoms: _809  and  _811
REMARK  326  A    between atoms: _811  and  _812
REMARK  327  A    between atoms: _811  and  _814
REMARK  328  A    between atoms: _814  and  _815
REMARK  329  A    between atoms: _818  and  _820
REMARK  330  A    between atoms: _820  and  _821
REMARK  331  A    between atoms: _820  and  _823
REMARK  332  A    between atoms: _823  and  _824
REMARK  333  A    between atoms: _829  and  _830
REMARK                            x       y       z     vdW  Elec       q    Type
REMARK                         _______ _______ _______ _____ _____    ______ ____
ROOT
ATOM      1  O   HOH     1     -21.282  14.102  35.557  0.00  0.00    +0.000 OA
ENDROOT
TORSDOF 0
