REMARK  Name = ../refined-set-2016/3s78/3s78_pocket.pdb
REMARK  145 active torsions:
REMARK  status: ('A' for Active; 'I' for Inactive)
REMARK    1  A    between atoms: _1  and  _3
REMARK    2  A    between atoms: _3  and  _4
REMARK    3  A    between atoms: _3  and  _6
REMARK    4  A    between atoms: _6  and  _7
REMARK    5  A    between atoms: _17  and  _19
REMARK    6  A    between atoms: _19  and  _20
REMARK    7  A    between atoms: _19  and  _22
REMARK    8  A    between atoms: _22  and  _23
REMARK    9  A    between atoms: _28  and  _29
REMARK   10  A    between atoms: _31  and  _33
REMARK   11  A    between atoms: _33  and  _34
REMARK   12  A    between atoms: _33  and  _36
REMARK   13  A    between atoms: _36  and  _37
REMARK   14  A    between atoms: _40  and  _41
REMARK   15  A    between atoms: _46  and  _48
REMARK   16  A    between atoms: _48  and  _49
REMARK   17  A    between atoms: _48  and  _51
REMARK   18  A    between atoms: _51  and  _52
REMARK   19  A    between atoms: _57  and  _59
REMARK   20  A    between atoms: _59  and  _60
REMARK   21  A    between atoms: _63  and  _65
REMARK   22  A    between atoms: _65  and  _66
REMARK   23  A    between atoms: _65  and  _68
REMARK   24  A    between atoms: _68  and  _69
REMARK   25  A    between atoms: _74  and  _76
REMARK   26  A    between atoms: _76  and  _77
REMARK   27  A    between atoms: _76  and  _79
REMARK   28  A    between atoms: _79  and  _80
REMARK   29  A    between atoms: _83  and  _85
REMARK   30  A    between atoms: _85  and  _86
REMARK   31  A    between atoms: _85  and  _88
REMARK   32  A    between atoms: _88  and  _89
REMARK   33  A    between atoms: _89  and  _90
REMARK   34  A    between atoms: _95  and  _97
REMARK   35  A    between atoms: _97  and  _98
REMARK   36  A    between atoms: _97  and  _100
REMARK   37  A    between atoms: _100  and  _101
REMARK   38  A    between atoms: _107  and  _109
REMARK   39  A    between atoms: _120  and  _123
REMARK   40  A    between atoms: _123  and  _124
REMARK   41  A    between atoms: _132  and  _133
REMARK   42  A    between atoms: _141  and  _143
REMARK   43  A    between atoms: _143  and  _144
REMARK   44  A    between atoms: _143  and  _146
REMARK   45  A    between atoms: _146  and  _147
REMARK   46  A    between atoms: _147  and  _148
REMARK   47  A    between atoms: _151  and  _153
REMARK   48  A    between atoms: _153  and  _154
REMARK   49  A    between atoms: _153  and  _156
REMARK   50  A    between atoms: _156  and  _157
REMARK   51  A    between atoms: _162  and  _164
REMARK   52  A    between atoms: _164  and  _165
REMARK   53  A    between atoms: _164  and  _167
REMARK   54  A    between atoms: _167  and  _168
REMARK   55  A    between atoms: _168  and  _169
REMARK   56  A    between atoms: _172  and  _174
REMARK   57  A    between atoms: _174  and  _175
REMARK   58  A    between atoms: _174  and  _177
REMARK   59  A    between atoms: _177  and  _178
REMARK   60  A    between atoms: _181  and  _183
REMARK   61  A    between atoms: _183  and  _184
REMARK   62  A    between atoms: _183  and  _186
REMARK   63  A    between atoms: _186  and  _187
REMARK   64  A    between atoms: _188  and  ZN_408
REMARK   65  A    between atoms: _192  and  _194
REMARK   66  A    between atoms: _194  and  _195
REMARK   67  A    between atoms: _194  and  _197
REMARK   68  A    between atoms: _197  and  _198
REMARK   69  A    between atoms: _201  and  _203
REMARK   70  A    between atoms: _203  and  _204
REMARK   71  A    between atoms: _203  and  _206
REMARK   72  A    between atoms: _209  and  _211
REMARK   73  A    between atoms: _211  and  _212
REMARK   74  A    between atoms: _211  and  _214
REMARK   75  A    between atoms: _214  and  _215
REMARK   76  A    between atoms: _220  and  _222
REMARK   77  A    between atoms: _222  and  _223
REMARK   78  A    between atoms: _222  and  _225
REMARK   79  A    between atoms: _225  and  _226
REMARK   80  A    between atoms: _232  and  _234
REMARK   81  A    between atoms: _234  and  _235
REMARK   82  A    between atoms: _234  and  _237
REMARK   83  A    between atoms: _240  and  _242
REMARK   84  A    between atoms: _242  and  _243
REMARK   85  A    between atoms: _242  and  _245
REMARK   86  A    between atoms: _245  and  _246
REMARK   87  A    between atoms: _249  and  _251
REMARK   88  A    between atoms: _251  and  _252
REMARK   89  A    between atoms: _255  and  _257
REMARK   90  A    between atoms: _257  and  _258
REMARK   91  A    between atoms: _257  and  _260
REMARK   92  A    between atoms: _263  and  _265
REMARK   93  A    between atoms: _265  and  _266
REMARK   94  A    between atoms: _265  and  _268
REMARK   95  A    between atoms: _268  and  _269
REMARK   96  A    between atoms: _272  and  _274
REMARK   97  A    between atoms: _274  and  _275
REMARK   98  A    between atoms: _277  and  _279
REMARK   99  A    between atoms: _279  and  _280
REMARK  100  A    between atoms: _282  and  _284
REMARK  101  A    between atoms: _284  and  _285
REMARK  102  A    between atoms: _284  and  _287
REMARK  103  A    between atoms: _287  and  _288
REMARK  104  A    between atoms: _290  and  _292
REMARK  105  A    between atoms: _292  and  _293
REMARK  106  A    between atoms: _292  and  _295
REMARK  107  A    between atoms: _295  and  _296
REMARK  108  A    between atoms: _299  and  _301
REMARK  109  A    between atoms: _301  and  _302
REMARK  110  A    between atoms: _301  and  _304
REMARK  111  A    between atoms: _304  and  _305
REMARK  112  A    between atoms: _308  and  _310
REMARK  113  A    between atoms: _310  and  _311
REMARK  114  A    between atoms: _310  and  _313
REMARK  115  A    between atoms: _313  and  _314
REMARK  116  A    between atoms: _318  and  _319
REMARK  117  A    between atoms: _325  and  _326
REMARK  118  A    between atoms: _331  and  _333
REMARK  119  A    between atoms: _333  and  _334
REMARK  120  A    between atoms: _333  and  _336
REMARK  121  A    between atoms: _336  and  _337
REMARK  122  A    between atoms: _340  and  _342
REMARK  123  A    between atoms: _342  and  _343
REMARK  124  A    between atoms: _342  and  _345
REMARK  125  A    between atoms: _345  and  _346
REMARK  126  A    between atoms: _349  and  _351
REMARK  127  A    between atoms: _351  and  _352
REMARK  128  A    between atoms: _351  and  _354
REMARK  129  A    between atoms: _356  and  _358
REMARK  130  A    between atoms: _358  and  _359
REMARK  131  A    between atoms: _358  and  _361
REMARK  132  A    between atoms: _364  and  _366
REMARK  133  A    between atoms: _366  and  _367
REMARK  134  A    between atoms: _366  and  _369
REMARK  135  A    between atoms: _369  and  _370
REMARK  136  A    between atoms: _380  and  _382
REMARK  137  A    between atoms: _382  and  _383
REMARK  138  A    between atoms: _382  and  _385
REMARK  139  A    between atoms: _385  and  _386
REMARK  140  A    between atoms: _391  and  _393
REMARK  141  A    between atoms: _393  and  _394
REMARK  142  A    between atoms: _393  and  _396
REMARK  143  A    between atoms: _396  and  _397
REMARK  144  A    between atoms: _397  and  _398
REMARK  145  A    between atoms: _398  and  _399
REMARK                            x       y       z     vdW  Elec       q    Type
REMARK                         _______ _______ _______ _____ _____    ______ ____
ROOT
ATOM      1  CG  TRP A   1      26.892   0.267  12.088  0.00  0.00    -0.002 A 
ATOM      2  CD2 TRP A   1      25.518  -0.166  11.987  0.00  0.00    +0.013 A 
ATOM      3  CE3 TRP A   1      24.878  -1.407  12.150  0.00  0.00    +0.001 A 
ATOM      4  CZ3 TRP A   1      23.447  -1.475  11.955  0.00  0.00    +0.000 A 
ATOM      5  CH2 TRP A   1      22.715  -0.316  11.594  0.00  0.00    +0.001 A 
ATOM      6  CZ2 TRP A   1      23.346   0.916  11.443  0.00  0.00    +0.017 A 
ATOM      7  CE2 TRP A   1      24.745   0.969  11.609  0.00  0.00    +0.056 A 
ATOM      8  NE1 TRP A   1      25.603   2.043  11.521  0.00  0.00    -0.352 N 
ATOM      9  HE1 TRP A   1      25.323   3.017  11.288  0.00  0.00    +0.166 HD
ATOM     10  CD1 TRP A   1      26.896   1.626  11.791  0.00  0.00    +0.068 A 
ENDROOT
BRANCH   1  11
ATOM     11  CB  TRP A   1      28.078  -0.600  12.447  0.00  0.00    +0.053 C 
BRANCH  11  12
ATOM     12  CA  TRP A   1      28.770  -1.209  11.219  0.00  0.00    +0.137 C 
BRANCH  12  13
ATOM     13  N   TRP A   1      29.306  -0.161  10.339  0.00  0.00    -0.239 NA
ATOM     14  H   TRP A   1      28.929   0.806  10.399  0.00  0.00    +0.142 HD
ENDBRANCH  12  13
BRANCH  12  15
ATOM     15  C   TRP A   1      27.810  -2.083  10.428  0.00  0.00    +0.224 C 
ATOM     16  O   TRP A   1      27.257  -1.637   9.417  0.00  0.00    -0.287 OA
ENDBRANCH  12  15
ENDBRANCH  11  12
ENDBRANCH   1  11
TORSDOF 4
REMARK  Name = ../refined-set-2016/3s78/3s78_pocket.pdb
REMARK  145 active torsions:
REMARK  status: ('A' for Active; 'I' for Inactive)
REMARK    1  A    between atoms: _1  and  _3
REMARK    2  A    between atoms: _3  and  _4
REMARK    3  A    between atoms: _3  and  _6
REMARK    4  A    between atoms: _6  and  _7
REMARK    5  A    between atoms: _17  and  _19
REMARK    6  A    between atoms: _19  and  _20
REMARK    7  A    between atoms: _19  and  _22
REMARK    8  A    between atoms: _22  and  _23
REMARK    9  A    between atoms: _28  and  _29
REMARK   10  A    between atoms: _31  and  _33
REMARK   11  A    between atoms: _33  and  _34
REMARK   12  A    between atoms: _33  and  _36
REMARK   13  A    between atoms: _36  and  _37
REMARK   14  A    between atoms: _40  and  _41
REMARK   15  A    between atoms: _46  and  _48
REMARK   16  A    between atoms: _48  and  _49
REMARK   17  A    between atoms: _48  and  _51
REMARK   18  A    between atoms: _51  and  _52
REMARK   19  A    between atoms: _57  and  _59
REMARK   20  A    between atoms: _59  and  _60
REMARK   21  A    between atoms: _63  and  _65
REMARK   22  A    between atoms: _65  and  _66
REMARK   23  A    between atoms: _65  and  _68
REMARK   24  A    between atoms: _68  and  _69
REMARK   25  A    between atoms: _74  and  _76
REMARK   26  A    between atoms: _76  and  _77
REMARK   27  A    between atoms: _76  and  _79
REMARK   28  A    between atoms: _79  and  _80
REMARK   29  A    between atoms: _83  and  _85
REMARK   30  A    between atoms: _85  and  _86
REMARK   31  A    between atoms: _85  and  _88
REMARK   32  A    between atoms: _88  and  _89
REMARK   33  A    between atoms: _89  and  _90
REMARK   34  A    between atoms: _95  and  _97
REMARK   35  A    between atoms: _97  and  _98
REMARK   36  A    between atoms: _97  and  _100
REMARK   37  A    between atoms: _100  and  _101
REMARK   38  A    between atoms: _107  and  _109
REMARK   39  A    between atoms: _120  and  _123
REMARK   40  A    between atoms: _123  and  _124
REMARK   41  A    between atoms: _132  and  _133
REMARK   42  A    between atoms: _141  and  _143
REMARK   43  A    between atoms: _143  and  _144
REMARK   44  A    between atoms: _143  and  _146
REMARK   45  A    between atoms: _146  and  _147
REMARK   46  A    between atoms: _147  and  _148
REMARK   47  A    between atoms: _151  and  _153
REMARK   48  A    between atoms: _153  and  _154
REMARK   49  A    between atoms: _153  and  _156
REMARK   50  A    between atoms: _156  and  _157
REMARK   51  A    between atoms: _162  and  _164
REMARK   52  A    between atoms: _164  and  _165
REMARK   53  A    between atoms: _164  and  _167
REMARK   54  A    between atoms: _167  and  _168
REMARK   55  A    between atoms: _168  and  _169
REMARK   56  A    between atoms: _172  and  _174
REMARK   57  A    between atoms: _174  and  _175
REMARK   58  A    between atoms: _174  and  _177
REMARK   59  A    between atoms: _177  and  _178
REMARK   60  A    between atoms: _181  and  _183
REMARK   61  A    between atoms: _183  and  _184
REMARK   62  A    between atoms: _183  and  _186
REMARK   63  A    between atoms: _186  and  _187
REMARK   64  A    between atoms: _188  and  ZN_408
REMARK   65  A    between atoms: _192  and  _194
REMARK   66  A    between atoms: _194  and  _195
REMARK   67  A    between atoms: _194  and  _197
REMARK   68  A    between atoms: _197  and  _198
REMARK   69  A    between atoms: _201  and  _203
REMARK   70  A    between atoms: _203  and  _204
REMARK   71  A    between atoms: _203  and  _206
REMARK   72  A    between atoms: _209  and  _211
REMARK   73  A    between atoms: _211  and  _212
REMARK   74  A    between atoms: _211  and  _214
REMARK   75  A    between atoms: _214  and  _215
REMARK   76  A    between atoms: _220  and  _222
REMARK   77  A    between atoms: _222  and  _223
REMARK   78  A    between atoms: _222  and  _225
REMARK   79  A    between atoms: _225  and  _226
REMARK   80  A    between atoms: _232  and  _234
REMARK   81  A    between atoms: _234  and  _235
REMARK   82  A    between atoms: _234  and  _237
REMARK   83  A    between atoms: _240  and  _242
REMARK   84  A    between atoms: _242  and  _243
REMARK   85  A    between atoms: _242  and  _245
REMARK   86  A    between atoms: _245  and  _246
REMARK   87  A    between atoms: _249  and  _251
REMARK   88  A    between atoms: _251  and  _252
REMARK   89  A    between atoms: _255  and  _257
REMARK   90  A    between atoms: _257  and  _258
REMARK   91  A    between atoms: _257  and  _260
REMARK   92  A    between atoms: _263  and  _265
REMARK   93  A    between atoms: _265  and  _266
REMARK   94  A    between atoms: _265  and  _268
REMARK   95  A    between atoms: _268  and  _269
REMARK   96  A    between atoms: _272  and  _274
REMARK   97  A    between atoms: _274  and  _275
REMARK   98  A    between atoms: _277  and  _279
REMARK   99  A    between atoms: _279  and  _280
REMARK  100  A    between atoms: _282  and  _284
REMARK  101  A    between atoms: _284  and  _285
REMARK  102  A    between atoms: _284  and  _287
REMARK  103  A    between atoms: _287  and  _288
REMARK  104  A    between atoms: _290  and  _292
REMARK  105  A    between atoms: _292  and  _293
REMARK  106  A    between atoms: _292  and  _295
REMARK  107  A    between atoms: _295  and  _296
REMARK  108  A    between atoms: _299  and  _301
REMARK  109  A    between atoms: _301  and  _302
REMARK  110  A    between atoms: _301  and  _304
REMARK  111  A    between atoms: _304  and  _305
REMARK  112  A    between atoms: _308  and  _310
REMARK  113  A    between atoms: _310  and  _311
REMARK  114  A    between atoms: _310  and  _313
REMARK  115  A    between atoms: _313  and  _314
REMARK  116  A    between atoms: _318  and  _319
REMARK  117  A    between atoms: _325  and  _326
REMARK  118  A    between atoms: _331  and  _333
REMARK  119  A    between atoms: _333  and  _334
REMARK  120  A    between atoms: _333  and  _336
REMARK  121  A    between atoms: _336  and  _337
REMARK  122  A    between atoms: _340  and  _342
REMARK  123  A    between atoms: _342  and  _343
REMARK  124  A    between atoms: _342  and  _345
REMARK  125  A    between atoms: _345  and  _346
REMARK  126  A    between atoms: _349  and  _351
REMARK  127  A    between atoms: _351  and  _352
REMARK  128  A    between atoms: _351  and  _354
REMARK  129  A    between atoms: _356  and  _358
REMARK  130  A    between atoms: _358  and  _359
REMARK  131  A    between atoms: _358  and  _361
REMARK  132  A    between atoms: _364  and  _366
REMARK  133  A    between atoms: _366  and  _367
REMARK  134  A    between atoms: _366  and  _369
REMARK  135  A    between atoms: _369  and  _370
REMARK  136  A    between atoms: _380  and  _382
REMARK  137  A    between atoms: _382  and  _383
REMARK  138  A    between atoms: _382  and  _385
REMARK  139  A    between atoms: _385  and  _386
REMARK  140  A    between atoms: _391  and  _393
REMARK  141  A    between atoms: _393  and  _394
REMARK  142  A    between atoms: _393  and  _396
REMARK  143  A    between atoms: _396  and  _397
REMARK  144  A    between atoms: _397  and  _398
REMARK  145  A    between atoms: _398  and  _399
REMARK                            x       y       z     vdW  Elec       q    Type
REMARK                         _______ _______ _______ _____ _____    ______ ____
ROOT
ATOM      1  CG  TYR A   1      23.085  -6.868  11.754  0.00  0.00    -0.020 A 
ATOM      2  CD2 TYR A   1      22.653  -6.883  13.077  0.00  0.00    -0.001 A 
ATOM      3  CE2 TYR A   1      21.791  -5.890  13.592  0.00  0.00    +0.036 A 
ATOM      4  CZ  TYR A   1      21.312  -4.892  12.738  0.00  0.00    +0.134 A 
ATOM      5  CE1 TYR A   1      21.753  -4.831  11.389  0.00  0.00    +0.036 A 
ATOM      6  CD1 TYR A   1      22.645  -5.852  10.916  0.00  0.00    -0.001 A 
ENDROOT
BRANCH   4   7
ATOM      7  OH  TYR A   1      20.459  -3.933  13.240  0.00  0.00    -0.506 OA
ATOM      8  HH  TYR A   1      20.211  -3.303  12.518  0.00  0.00    +0.292 HD
ENDBRANCH   4   7
BRANCH   1   9
ATOM      9  CB  TYR A   1      24.017  -7.948  11.244  0.00  0.00    +0.051 C 
BRANCH   9  10
ATOM     10  CA  TYR A   1      25.484  -7.588  11.436  0.00  0.00    +0.137 C 
BRANCH  10  11
ATOM     11  N   TYR A   1      25.811  -6.422  10.590  0.00  0.00    -0.239 NA
ATOM     12  H   TYR A   1      25.764  -6.502   9.554  0.00  0.00    +0.142 HD
ENDBRANCH  10  11
BRANCH  10  13
ATOM     13  C   TYR A   1      26.403  -8.811  11.301  0.00  0.00    +0.224 C 
ATOM     14  O   TYR A   1      26.214  -9.846  12.006  0.00  0.00    -0.287 OA
ENDBRANCH  10  13
ENDBRANCH   9  10
ENDBRANCH   1   9
TORSDOF 5
REMARK  Name = ../refined-set-2016/3s78/3s78_pocket.pdb
REMARK  145 active torsions:
REMARK  status: ('A' for Active; 'I' for Inactive)
REMARK    1  A    between atoms: _1  and  _3
REMARK    2  A    between atoms: _3  and  _4
REMARK    3  A    between atoms: _3  and  _6
REMARK    4  A    between atoms: _6  and  _7
REMARK    5  A    between atoms: _17  and  _19
REMARK    6  A    between atoms: _19  and  _20
REMARK    7  A    between atoms: _19  and  _22
REMARK    8  A    between atoms: _22  and  _23
REMARK    9  A    between atoms: _28  and  _29
REMARK   10  A    between atoms: _31  and  _33
REMARK   11  A    between atoms: _33  and  _34
REMARK   12  A    between atoms: _33  and  _36
REMARK   13  A    between atoms: _36  and  _37
REMARK   14  A    between atoms: _40  and  _41
REMARK   15  A    between atoms: _46  and  _48
REMARK   16  A    between atoms: _48  and  _49
REMARK   17  A    between atoms: _48  and  _51
REMARK   18  A    between atoms: _51  and  _52
REMARK   19  A    between atoms: _57  and  _59
REMARK   20  A    between atoms: _59  and  _60
REMARK   21  A    between atoms: _63  and  _65
REMARK   22  A    between atoms: _65  and  _66
REMARK   23  A    between atoms: _65  and  _68
REMARK   24  A    between atoms: _68  and  _69
REMARK   25  A    between atoms: _74  and  _76
REMARK   26  A    between atoms: _76  and  _77
REMARK   27  A    between atoms: _76  and  _79
REMARK   28  A    between atoms: _79  and  _80
REMARK   29  A    between atoms: _83  and  _85
REMARK   30  A    between atoms: _85  and  _86
REMARK   31  A    between atoms: _85  and  _88
REMARK   32  A    between atoms: _88  and  _89
REMARK   33  A    between atoms: _89  and  _90
REMARK   34  A    between atoms: _95  and  _97
REMARK   35  A    between atoms: _97  and  _98
REMARK   36  A    between atoms: _97  and  _100
REMARK   37  A    between atoms: _100  and  _101
REMARK   38  A    between atoms: _107  and  _109
REMARK   39  A    between atoms: _120  and  _123
REMARK   40  A    between atoms: _123  and  _124
REMARK   41  A    between atoms: _132  and  _133
REMARK   42  A    between atoms: _141  and  _143
REMARK   43  A    between atoms: _143  and  _144
REMARK   44  A    between atoms: _143  and  _146
REMARK   45  A    between atoms: _146  and  _147
REMARK   46  A    between atoms: _147  and  _148
REMARK   47  A    between atoms: _151  and  _153
REMARK   48  A    between atoms: _153  and  _154
REMARK   49  A    between atoms: _153  and  _156
REMARK   50  A    between atoms: _156  and  _157
REMARK   51  A    between atoms: _162  and  _164
REMARK   52  A    between atoms: _164  and  _165
REMARK   53  A    between atoms: _164  and  _167
REMARK   54  A    between atoms: _167  and  _168
REMARK   55  A    between atoms: _168  and  _169
REMARK   56  A    between atoms: _172  and  _174
REMARK   57  A    between atoms: _174  and  _175
REMARK   58  A    between atoms: _174  and  _177
REMARK   59  A    between atoms: _177  and  _178
REMARK   60  A    between atoms: _181  and  _183
REMARK   61  A    between atoms: _183  and  _184
REMARK   62  A    between atoms: _183  and  _186
REMARK   63  A    between atoms: _186  and  _187
REMARK   64  A    between atoms: _188  and  ZN_408
REMARK   65  A    between atoms: _192  and  _194
REMARK   66  A    between atoms: _194  and  _195
REMARK   67  A    between atoms: _194  and  _197
REMARK   68  A    between atoms: _197  and  _198
REMARK   69  A    between atoms: _201  and  _203
REMARK   70  A    between atoms: _203  and  _204
REMARK   71  A    between atoms: _203  and  _206
REMARK   72  A    between atoms: _209  and  _211
REMARK   73  A    between atoms: _211  and  _212
REMARK   74  A    between atoms: _211  and  _214
REMARK   75  A    between atoms: _214  and  _215
REMARK   76  A    between atoms: _220  and  _222
REMARK   77  A    between atoms: _222  and  _223
REMARK   78  A    between atoms: _222  and  _225
REMARK   79  A    between atoms: _225  and  _226
REMARK   80  A    between atoms: _232  and  _234
REMARK   81  A    between atoms: _234  and  _235
REMARK   82  A    between atoms: _234  and  _237
REMARK   83  A    between atoms: _240  and  _242
REMARK   84  A    between atoms: _242  and  _243
REMARK   85  A    between atoms: _242  and  _245
REMARK   86  A    between atoms: _245  and  _246
REMARK   87  A    between atoms: _249  and  _251
REMARK   88  A    between atoms: _251  and  _252
REMARK   89  A    between atoms: _255  and  _257
REMARK   90  A    between atoms: _257  and  _258
REMARK   91  A    between atoms: _257  and  _260
REMARK   92  A    between atoms: _263  and  _265
REMARK   93  A    between atoms: _265  and  _266
REMARK   94  A    between atoms: _265  and  _268
REMARK   95  A    between atoms: _268  and  _269
REMARK   96  A    between atoms: _272  and  _274
REMARK   97  A    between atoms: _274  and  _275
REMARK   98  A    between atoms: _277  and  _279
REMARK   99  A    between atoms: _279  and  _280
REMARK  100  A    between atoms: _282  and  _284
REMARK  101  A    between atoms: _284  and  _285
REMARK  102  A    between atoms: _284  and  _287
REMARK  103  A    between atoms: _287  and  _288
REMARK  104  A    between atoms: _290  and  _292
REMARK  105  A    between atoms: _292  and  _293
REMARK  106  A    between atoms: _292  and  _295
REMARK  107  A    between atoms: _295  and  _296
REMARK  108  A    between atoms: _299  and  _301
REMARK  109  A    between atoms: _301  and  _302
REMARK  110  A    between atoms: _301  and  _304
REMARK  111  A    between atoms: _304  and  _305
REMARK  112  A    between atoms: _308  and  _310
REMARK  113  A    between atoms: _310  and  _311
REMARK  114  A    between atoms: _310  and  _313
REMARK  115  A    between atoms: _313  and  _314
REMARK  116  A    between atoms: _318  and  _319
REMARK  117  A    between atoms: _325  and  _326
REMARK  118  A    between atoms: _331  and  _333
REMARK  119  A    between atoms: _333  and  _334
REMARK  120  A    between atoms: _333  and  _336
REMARK  121  A    between atoms: _336  and  _337
REMARK  122  A    between atoms: _340  and  _342
REMARK  123  A    between atoms: _342  and  _343
REMARK  124  A    between atoms: _342  and  _345
REMARK  125  A    between atoms: _345  and  _346
REMARK  126  A    between atoms: _349  and  _351
REMARK  127  A    between atoms: _351  and  _352
REMARK  128  A    between atoms: _351  and  _354
REMARK  129  A    between atoms: _356  and  _358
REMARK  130  A    between atoms: _358  and  _359
REMARK  131  A    between atoms: _358  and  _361
REMARK  132  A    between atoms: _364  and  _366
REMARK  133  A    between atoms: _366  and  _367
REMARK  134  A    between atoms: _366  and  _369
REMARK  135  A    between atoms: _369  and  _370
REMARK  136  A    between atoms: _380  and  _382
REMARK  137  A    between atoms: _382  and  _383
REMARK  138  A    between atoms: _382  and  _385
REMARK  139  A    between atoms: _385  and  _386
REMARK  140  A    between atoms: _391  and  _393
REMARK  141  A    between atoms: _393  and  _394
REMARK  142  A    between atoms: _393  and  _396
REMARK  143  A    between atoms: _396  and  _397
REMARK  144  A    between atoms: _397  and  _398
REMARK  145  A    between atoms: _398  and  _399
REMARK                            x       y       z     vdW  Elec       q    Type
REMARK                         _______ _______ _______ _____ _____    ______ ____
ROOT
ATOM      1  C   SER A   1      18.879  -2.954  23.120  0.00  0.00    +0.244 C 
ATOM      2  N   PRO A   2      18.252  -4.137  22.887  0.00  0.00    -0.273 N 
ATOM      3  CA  PRO A   2      17.021  -4.575  23.547  0.00  0.00    +0.140 C 
ATOM      4  CB  PRO A   2      16.446  -5.591  22.544  0.00  0.00    +0.030 C 
ATOM      5  CG  PRO A   2      17.709  -6.248  22.055  0.00  0.00    +0.024 C 
ATOM      6  CD  PRO A   2      18.570  -5.007  21.739  0.00  0.00    +0.094 C 
ATOM      7  O   SER A   1      19.793  -2.508  22.385  0.00  0.00    -0.273 OA
ENDROOT
BRANCH   3   8
ATOM      8  C   PRO A   2      17.409  -5.291  24.839  0.00  0.00    +0.227 C 
ATOM      9  O   PRO A   2      18.621  -5.308  25.150  0.00  0.00    -0.286 OA
ENDBRANCH   3   8
BRANCH   1  10
ATOM     10  CA  SER A   1      18.330  -2.108  24.241  0.00  0.00    +0.175 C 
BRANCH  10  11
ATOM     11  N   SER A   1      19.361  -1.269  24.712  0.00  0.00    -0.236 NA
ATOM     12  H   SER A   1      19.864  -0.679  24.019  0.00  0.00    +0.142 HD
ENDBRANCH  10  11
BRANCH  10  13
ATOM     13  CB  SER A   1      17.167  -1.290  23.679  0.00  0.00    +0.163 C 
BRANCH  13  14
ATOM     14  OG  SER A   1      16.494  -0.515  24.654  0.00  0.00    -0.380 OA
ATOM     15  H   SER A   1      16.125  -1.113  25.352  0.00  0.00    +0.211 HD
ENDBRANCH  13  14
ENDBRANCH  10  13
ENDBRANCH   1  10
TORSDOF 5
REMARK  Name = ../refined-set-2016/3s78/3s78_pocket.pdb
REMARK  145 active torsions:
REMARK  status: ('A' for Active; 'I' for Inactive)
REMARK    1  A    between atoms: _1  and  _3
REMARK    2  A    between atoms: _3  and  _4
REMARK    3  A    between atoms: _3  and  _6
REMARK    4  A    between atoms: _6  and  _7
REMARK    5  A    between atoms: _17  and  _19
REMARK    6  A    between atoms: _19  and  _20
REMARK    7  A    between atoms: _19  and  _22
REMARK    8  A    between atoms: _22  and  _23
REMARK    9  A    between atoms: _28  and  _29
REMARK   10  A    between atoms: _31  and  _33
REMARK   11  A    between atoms: _33  and  _34
REMARK   12  A    between atoms: _33  and  _36
REMARK   13  A    between atoms: _36  and  _37
REMARK   14  A    between atoms: _40  and  _41
REMARK   15  A    between atoms: _46  and  _48
REMARK   16  A    between atoms: _48  and  _49
REMARK   17  A    between atoms: _48  and  _51
REMARK   18  A    between atoms: _51  and  _52
REMARK   19  A    between atoms: _57  and  _59
REMARK   20  A    between atoms: _59  and  _60
REMARK   21  A    between atoms: _63  and  _65
REMARK   22  A    between atoms: _65  and  _66
REMARK   23  A    between atoms: _65  and  _68
REMARK   24  A    between atoms: _68  and  _69
REMARK   25  A    between atoms: _74  and  _76
REMARK   26  A    between atoms: _76  and  _77
REMARK   27  A    between atoms: _76  and  _79
REMARK   28  A    between atoms: _79  and  _80
REMARK   29  A    between atoms: _83  and  _85
REMARK   30  A    between atoms: _85  and  _86
REMARK   31  A    between atoms: _85  and  _88
REMARK   32  A    between atoms: _88  and  _89
REMARK   33  A    between atoms: _89  and  _90
REMARK   34  A    between atoms: _95  and  _97
REMARK   35  A    between atoms: _97  and  _98
REMARK   36  A    between atoms: _97  and  _100
REMARK   37  A    between atoms: _100  and  _101
REMARK   38  A    between atoms: _107  and  _109
REMARK   39  A    between atoms: _120  and  _123
REMARK   40  A    between atoms: _123  and  _124
REMARK   41  A    between atoms: _132  and  _133
REMARK   42  A    between atoms: _141  and  _143
REMARK   43  A    between atoms: _143  and  _144
REMARK   44  A    between atoms: _143  and  _146
REMARK   45  A    between atoms: _146  and  _147
REMARK   46  A    between atoms: _147  and  _148
REMARK   47  A    between atoms: _151  and  _153
REMARK   48  A    between atoms: _153  and  _154
REMARK   49  A    between atoms: _153  and  _156
REMARK   50  A    between atoms: _156  and  _157
REMARK   51  A    between atoms: _162  and  _164
REMARK   52  A    between atoms: _164  and  _165
REMARK   53  A    between atoms: _164  and  _167
REMARK   54  A    between atoms: _167  and  _168
REMARK   55  A    between atoms: _168  and  _169
REMARK   56  A    between atoms: _172  and  _174
REMARK   57  A    between atoms: _174  and  _175
REMARK   58  A    between atoms: _174  and  _177
REMARK   59  A    between atoms: _177  and  _178
REMARK   60  A    between atoms: _181  and  _183
REMARK   61  A    between atoms: _183  and  _184
REMARK   62  A    between atoms: _183  and  _186
REMARK   63  A    between atoms: _186  and  _187
REMARK   64  A    between atoms: _188  and  ZN_408
REMARK   65  A    between atoms: _192  and  _194
REMARK   66  A    between atoms: _194  and  _195
REMARK   67  A    between atoms: _194  and  _197
REMARK   68  A    between atoms: _197  and  _198
REMARK   69  A    between atoms: _201  and  _203
REMARK   70  A    between atoms: _203  and  _204
REMARK   71  A    between atoms: _203  and  _206
REMARK   72  A    between atoms: _209  and  _211
REMARK   73  A    between atoms: _211  and  _212
REMARK   74  A    between atoms: _211  and  _214
REMARK   75  A    between atoms: _214  and  _215
REMARK   76  A    between atoms: _220  and  _222
REMARK   77  A    between atoms: _222  and  _223
REMARK   78  A    between atoms: _222  and  _225
REMARK   79  A    between atoms: _225  and  _226
REMARK   80  A    between atoms: _232  and  _234
REMARK   81  A    between atoms: _234  and  _235
REMARK   82  A    between atoms: _234  and  _237
REMARK   83  A    between atoms: _240  and  _242
REMARK   84  A    between atoms: _242  and  _243
REMARK   85  A    between atoms: _242  and  _245
REMARK   86  A    between atoms: _245  and  _246
REMARK   87  A    between atoms: _249  and  _251
REMARK   88  A    between atoms: _251  and  _252
REMARK   89  A    between atoms: _255  and  _257
REMARK   90  A    between atoms: _257  and  _258
REMARK   91  A    between atoms: _257  and  _260
REMARK   92  A    between atoms: _263  and  _265
REMARK   93  A    between atoms: _265  and  _266
REMARK   94  A    between atoms: _265  and  _268
REMARK   95  A    between atoms: _268  and  _269
REMARK   96  A    between atoms: _272  and  _274
REMARK   97  A    between atoms: _274  and  _275
REMARK   98  A    between atoms: _277  and  _279
REMARK   99  A    between atoms: _279  and  _280
REMARK  100  A    between atoms: _282  and  _284
REMARK  101  A    between atoms: _284  and  _285
REMARK  102  A    between atoms: _284  and  _287
REMARK  103  A    between atoms: _287  and  _288
REMARK  104  A    between atoms: _290  and  _292
REMARK  105  A    between atoms: _292  and  _293
REMARK  106  A    between atoms: _292  and  _295
REMARK  107  A    between atoms: _295  and  _296
REMARK  108  A    between atoms: _299  and  _301
REMARK  109  A    between atoms: _301  and  _302
REMARK  110  A    between atoms: _301  and  _304
REMARK  111  A    between atoms: _304  and  _305
REMARK  112  A    between atoms: _308  and  _310
REMARK  113  A    between atoms: _310  and  _311
REMARK  114  A    between atoms: _310  and  _313
REMARK  115  A    between atoms: _313  and  _314
REMARK  116  A    between atoms: _318  and  _319
REMARK  117  A    between atoms: _325  and  _326
REMARK  118  A    between atoms: _331  and  _333
REMARK  119  A    between atoms: _333  and  _334
REMARK  120  A    between atoms: _333  and  _336
REMARK  121  A    between atoms: _336  and  _337
REMARK  122  A    between atoms: _340  and  _342
REMARK  123  A    between atoms: _342  and  _343
REMARK  124  A    between atoms: _342  and  _345
REMARK  125  A    between atoms: _345  and  _346
REMARK  126  A    between atoms: _349  and  _351
REMARK  127  A    between atoms: _351  and  _352
REMARK  128  A    between atoms: _351  and  _354
REMARK  129  A    between atoms: _356  and  _358
REMARK  130  A    between atoms: _358  and  _359
REMARK  131  A    between atoms: _358  and  _361
REMARK  132  A    between atoms: _364  and  _366
REMARK  133  A    between atoms: _366  and  _367
REMARK  134  A    between atoms: _366  and  _369
REMARK  135  A    between atoms: _369  and  _370
REMARK  136  A    between atoms: _380  and  _382
REMARK  137  A    between atoms: _382  and  _383
REMARK  138  A    between atoms: _382  and  _385
REMARK  139  A    between atoms: _385  and  _386
REMARK  140  A    between atoms: _391  and  _393
REMARK  141  A    between atoms: _393  and  _394
REMARK  142  A    between atoms: _393  and  _396
REMARK  143  A    between atoms: _396  and  _397
REMARK  144  A    between atoms: _397  and  _398
REMARK  145  A    between atoms: _398  and  _399
REMARK                            x       y       z     vdW  Elec       q    Type
REMARK                         _______ _______ _______ _____ _____    ______ ____
ROOT
ATOM      1  CB  ASN A   1      18.484   2.140   5.179  0.00  0.00    +0.110 C 
ENDROOT
BRANCH   1   2
ATOM      2  CG  ASN A   1      18.261   1.269   6.449  0.00  0.00    +0.221 C 
ATOM      3  ND2 ASN A   1      17.604   1.841   7.457  0.00  0.00    -0.329 N 
ATOM      4 HD21 ASN A   1      17.452   1.317   8.343  0.00  0.00    +0.145 HD
ATOM      5 HD22 ASN A   1      17.243   2.811   7.358  0.00  0.00    +0.145 HD
ATOM      6  OD1 ASN A   1      18.717   0.105   6.513  0.00  0.00    -0.275 OA
ENDBRANCH   1   2
BRANCH   1   7
ATOM      7  CA  ASN A   1      19.014   1.304   3.968  0.00  0.00    +0.142 C 
BRANCH   7   8
ATOM      8  N   ASN A   1      17.964   0.411   3.518  0.00  0.00    -0.239 NA
ATOM      9  H   ASN A   1      17.522  -0.244   4.193  0.00  0.00    +0.142 HD
ENDBRANCH   7   8
BRANCH   7  10
ATOM     10  C   ASN A   1      20.295   0.464   4.222  0.00  0.00    +0.225 C 
ATOM     11  O   ASN A   1      21.331   0.951   4.669  0.00  0.00    -0.287 OA
ENDBRANCH   7  10
ENDBRANCH   1   7
TORSDOF 4
REMARK  Name = ../refined-set-2016/3s78/3s78_pocket.pdb
REMARK  145 active torsions:
REMARK  status: ('A' for Active; 'I' for Inactive)
REMARK    1  A    between atoms: _1  and  _3
REMARK    2  A    between atoms: _3  and  _4
REMARK    3  A    between atoms: _3  and  _6
REMARK    4  A    between atoms: _6  and  _7
REMARK    5  A    between atoms: _17  and  _19
REMARK    6  A    between atoms: _19  and  _20
REMARK    7  A    between atoms: _19  and  _22
REMARK    8  A    between atoms: _22  and  _23
REMARK    9  A    between atoms: _28  and  _29
REMARK   10  A    between atoms: _31  and  _33
REMARK   11  A    between atoms: _33  and  _34
REMARK   12  A    between atoms: _33  and  _36
REMARK   13  A    between atoms: _36  and  _37
REMARK   14  A    between atoms: _40  and  _41
REMARK   15  A    between atoms: _46  and  _48
REMARK   16  A    between atoms: _48  and  _49
REMARK   17  A    between atoms: _48  and  _51
REMARK   18  A    between atoms: _51  and  _52
REMARK   19  A    between atoms: _57  and  _59
REMARK   20  A    between atoms: _59  and  _60
REMARK   21  A    between atoms: _63  and  _65
REMARK   22  A    between atoms: _65  and  _66
REMARK   23  A    between atoms: _65  and  _68
REMARK   24  A    between atoms: _68  and  _69
REMARK   25  A    between atoms: _74  and  _76
REMARK   26  A    between atoms: _76  and  _77
REMARK   27  A    between atoms: _76  and  _79
REMARK   28  A    between atoms: _79  and  _80
REMARK   29  A    between atoms: _83  and  _85
REMARK   30  A    between atoms: _85  and  _86
REMARK   31  A    between atoms: _85  and  _88
REMARK   32  A    between atoms: _88  and  _89
REMARK   33  A    between atoms: _89  and  _90
REMARK   34  A    between atoms: _95  and  _97
REMARK   35  A    between atoms: _97  and  _98
REMARK   36  A    between atoms: _97  and  _100
REMARK   37  A    between atoms: _100  and  _101
REMARK   38  A    between atoms: _107  and  _109
REMARK   39  A    between atoms: _120  and  _123
REMARK   40  A    between atoms: _123  and  _124
REMARK   41  A    between atoms: _132  and  _133
REMARK   42  A    between atoms: _141  and  _143
REMARK   43  A    between atoms: _143  and  _144
REMARK   44  A    between atoms: _143  and  _146
REMARK   45  A    between atoms: _146  and  _147
REMARK   46  A    between atoms: _147  and  _148
REMARK   47  A    between atoms: _151  and  _153
REMARK   48  A    between atoms: _153  and  _154
REMARK   49  A    between atoms: _153  and  _156
REMARK   50  A    between atoms: _156  and  _157
REMARK   51  A    between atoms: _162  and  _164
REMARK   52  A    between atoms: _164  and  _165
REMARK   53  A    between atoms: _164  and  _167
REMARK   54  A    between atoms: _167  and  _168
REMARK   55  A    between atoms: _168  and  _169
REMARK   56  A    between atoms: _172  and  _174
REMARK   57  A    between atoms: _174  and  _175
REMARK   58  A    between atoms: _174  and  _177
REMARK   59  A    between atoms: _177  and  _178
REMARK   60  A    between atoms: _181  and  _183
REMARK   61  A    between atoms: _183  and  _184
REMARK   62  A    between atoms: _183  and  _186
REMARK   63  A    between atoms: _186  and  _187
REMARK   64  A    between atoms: _188  and  ZN_408
REMARK   65  A    between atoms: _192  and  _194
REMARK   66  A    between atoms: _194  and  _195
REMARK   67  A    between atoms: _194  and  _197
REMARK   68  A    between atoms: _197  and  _198
REMARK   69  A    between atoms: _201  and  _203
REMARK   70  A    between atoms: _203  and  _204
REMARK   71  A    between atoms: _203  and  _206
REMARK   72  A    between atoms: _209  and  _211
REMARK   73  A    between atoms: _211  and  _212
REMARK   74  A    between atoms: _211  and  _214
REMARK   75  A    between atoms: _214  and  _215
REMARK   76  A    between atoms: _220  and  _222
REMARK   77  A    between atoms: _222  and  _223
REMARK   78  A    between atoms: _222  and  _225
REMARK   79  A    between atoms: _225  and  _226
REMARK   80  A    between atoms: _232  and  _234
REMARK   81  A    between atoms: _234  and  _235
REMARK   82  A    between atoms: _234  and  _237
REMARK   83  A    between atoms: _240  and  _242
REMARK   84  A    between atoms: _242  and  _243
REMARK   85  A    between atoms: _242  and  _245
REMARK   86  A    between atoms: _245  and  _246
REMARK   87  A    between atoms: _249  and  _251
REMARK   88  A    between atoms: _251  and  _252
REMARK   89  A    between atoms: _255  and  _257
REMARK   90  A    between atoms: _257  and  _258
REMARK   91  A    between atoms: _257  and  _260
REMARK   92  A    between atoms: _263  and  _265
REMARK   93  A    between atoms: _265  and  _266
REMARK   94  A    between atoms: _265  and  _268
REMARK   95  A    between atoms: _268  and  _269
REMARK   96  A    between atoms: _272  and  _274
REMARK   97  A    between atoms: _274  and  _275
REMARK   98  A    between atoms: _277  and  _279
REMARK   99  A    between atoms: _279  and  _280
REMARK  100  A    between atoms: _282  and  _284
REMARK  101  A    between atoms: _284  and  _285
REMARK  102  A    between atoms: _284  and  _287
REMARK  103  A    between atoms: _287  and  _288
REMARK  104  A    between atoms: _290  and  _292
REMARK  105  A    between atoms: _292  and  _293
REMARK  106  A    between atoms: _292  and  _295
REMARK  107  A    between atoms: _295  and  _296
REMARK  108  A    between atoms: _299  and  _301
REMARK  109  A    between atoms: _301  and  _302
REMARK  110  A    between atoms: _301  and  _304
REMARK  111  A    between atoms: _304  and  _305
REMARK  112  A    between atoms: _308  and  _310
REMARK  113  A    between atoms: _310  and  _311
REMARK  114  A    between atoms: _310  and  _313
REMARK  115  A    between atoms: _313  and  _314
REMARK  116  A    between atoms: _318  and  _319
REMARK  117  A    between atoms: _325  and  _326
REMARK  118  A    between atoms: _331  and  _333
REMARK  119  A    between atoms: _333  and  _334
REMARK  120  A    between atoms: _333  and  _336
REMARK  121  A    between atoms: _336  and  _337
REMARK  122  A    between atoms: _340  and  _342
REMARK  123  A    between atoms: _342  and  _343
REMARK  124  A    between atoms: _342  and  _345
REMARK  125  A    between atoms: _345  and  _346
REMARK  126  A    between atoms: _349  and  _351
REMARK  127  A    between atoms: _351  and  _352
REMARK  128  A    between atoms: _351  and  _354
REMARK  129  A    between atoms: _356  and  _358
REMARK  130  A    between atoms: _358  and  _359
REMARK  131  A    between atoms: _358  and  _361
REMARK  132  A    between atoms: _364  and  _366
REMARK  133  A    between atoms: _366  and  _367
REMARK  134  A    between atoms: _366  and  _369
REMARK  135  A    between atoms: _369  and  _370
REMARK  136  A    between atoms: _380  and  _382
REMARK  137  A    between atoms: _382  and  _383
REMARK  138  A    between atoms: _382  and  _385
REMARK  139  A    between atoms: _385  and  _386
REMARK  140  A    between atoms: _391  and  _393
REMARK  141  A    between atoms: _393  and  _394
REMARK  142  A    between atoms: _393  and  _396
REMARK  143  A    between atoms: _396  and  _397
REMARK  144  A    between atoms: _397  and  _398
REMARK  145  A    between atoms: _398  and  _399
REMARK                            x       y       z     vdW  Elec       q    Type
REMARK                         _______ _______ _______ _____ _____    ______ ____
ROOT
ATOM      1  CA  ALA A   1      16.587  -3.208   7.184  0.00  0.00    +0.133 C 
ATOM      2  CB  ALA A   1      15.946  -2.923   8.605  0.00  0.00    +0.027 C 
ENDROOT
BRANCH   1   3
ATOM      3  N   ALA A   1      17.942  -2.740   7.141  0.00  0.00    -0.239 NA
ATOM      4  H   ALA A   1      18.126  -1.818   6.696  0.00  0.00    +0.142 HD
ENDBRANCH   1   3
BRANCH   1   5
ATOM      5  C   ALA A   1      15.864  -2.450   6.091  0.00  0.00    +0.224 C 
ATOM      6  O   ALA A   1      16.513  -1.781   5.253  0.00  0.00    -0.287 OA
ENDBRANCH   1   5
TORSDOF 2
REMARK  Name = ../refined-set-2016/3s78/3s78_pocket.pdb
REMARK  145 active torsions:
REMARK  status: ('A' for Active; 'I' for Inactive)
REMARK    1  A    between atoms: _1  and  _3
REMARK    2  A    between atoms: _3  and  _4
REMARK    3  A    between atoms: _3  and  _6
REMARK    4  A    between atoms: _6  and  _7
REMARK    5  A    between atoms: _17  and  _19
REMARK    6  A    between atoms: _19  and  _20
REMARK    7  A    between atoms: _19  and  _22
REMARK    8  A    between atoms: _22  and  _23
REMARK    9  A    between atoms: _28  and  _29
REMARK   10  A    between atoms: _31  and  _33
REMARK   11  A    between atoms: _33  and  _34
REMARK   12  A    between atoms: _33  and  _36
REMARK   13  A    between atoms: _36  and  _37
REMARK   14  A    between atoms: _40  and  _41
REMARK   15  A    between atoms: _46  and  _48
REMARK   16  A    between atoms: _48  and  _49
REMARK   17  A    between atoms: _48  and  _51
REMARK   18  A    between atoms: _51  and  _52
REMARK   19  A    between atoms: _57  and  _59
REMARK   20  A    between atoms: _59  and  _60
REMARK   21  A    between atoms: _63  and  _65
REMARK   22  A    between atoms: _65  and  _66
REMARK   23  A    between atoms: _65  and  _68
REMARK   24  A    between atoms: _68  and  _69
REMARK   25  A    between atoms: _74  and  _76
REMARK   26  A    between atoms: _76  and  _77
REMARK   27  A    between atoms: _76  and  _79
REMARK   28  A    between atoms: _79  and  _80
REMARK   29  A    between atoms: _83  and  _85
REMARK   30  A    between atoms: _85  and  _86
REMARK   31  A    between atoms: _85  and  _88
REMARK   32  A    between atoms: _88  and  _89
REMARK   33  A    between atoms: _89  and  _90
REMARK   34  A    between atoms: _95  and  _97
REMARK   35  A    between atoms: _97  and  _98
REMARK   36  A    between atoms: _97  and  _100
REMARK   37  A    between atoms: _100  and  _101
REMARK   38  A    between atoms: _107  and  _109
REMARK   39  A    between atoms: _120  and  _123
REMARK   40  A    between atoms: _123  and  _124
REMARK   41  A    between atoms: _132  and  _133
REMARK   42  A    between atoms: _141  and  _143
REMARK   43  A    between atoms: _143  and  _144
REMARK   44  A    between atoms: _143  and  _146
REMARK   45  A    between atoms: _146  and  _147
REMARK   46  A    between atoms: _147  and  _148
REMARK   47  A    between atoms: _151  and  _153
REMARK   48  A    between atoms: _153  and  _154
REMARK   49  A    between atoms: _153  and  _156
REMARK   50  A    between atoms: _156  and  _157
REMARK   51  A    between atoms: _162  and  _164
REMARK   52  A    between atoms: _164  and  _165
REMARK   53  A    between atoms: _164  and  _167
REMARK   54  A    between atoms: _167  and  _168
REMARK   55  A    between atoms: _168  and  _169
REMARK   56  A    between atoms: _172  and  _174
REMARK   57  A    between atoms: _174  and  _175
REMARK   58  A    between atoms: _174  and  _177
REMARK   59  A    between atoms: _177  and  _178
REMARK   60  A    between atoms: _181  and  _183
REMARK   61  A    between atoms: _183  and  _184
REMARK   62  A    between atoms: _183  and  _186
REMARK   63  A    between atoms: _186  and  _187
REMARK   64  A    between atoms: _188  and  ZN_408
REMARK   65  A    between atoms: _192  and  _194
REMARK   66  A    between atoms: _194  and  _195
REMARK   67  A    between atoms: _194  and  _197
REMARK   68  A    between atoms: _197  and  _198
REMARK   69  A    between atoms: _201  and  _203
REMARK   70  A    between atoms: _203  and  _204
REMARK   71  A    between atoms: _203  and  _206
REMARK   72  A    between atoms: _209  and  _211
REMARK   73  A    between atoms: _211  and  _212
REMARK   74  A    between atoms: _211  and  _214
REMARK   75  A    between atoms: _214  and  _215
REMARK   76  A    between atoms: _220  and  _222
REMARK   77  A    between atoms: _222  and  _223
REMARK   78  A    between atoms: _222  and  _225
REMARK   79  A    between atoms: _225  and  _226
REMARK   80  A    between atoms: _232  and  _234
REMARK   81  A    between atoms: _234  and  _235
REMARK   82  A    between atoms: _234  and  _237
REMARK   83  A    between atoms: _240  and  _242
REMARK   84  A    between atoms: _242  and  _243
REMARK   85  A    between atoms: _242  and  _245
REMARK   86  A    between atoms: _245  and  _246
REMARK   87  A    between atoms: _249  and  _251
REMARK   88  A    between atoms: _251  and  _252
REMARK   89  A    between atoms: _255  and  _257
REMARK   90  A    between atoms: _257  and  _258
REMARK   91  A    between atoms: _257  and  _260
REMARK   92  A    between atoms: _263  and  _265
REMARK   93  A    between atoms: _265  and  _266
REMARK   94  A    between atoms: _265  and  _268
REMARK   95  A    between atoms: _268  and  _269
REMARK   96  A    between atoms: _272  and  _274
REMARK   97  A    between atoms: _274  and  _275
REMARK   98  A    between atoms: _277  and  _279
REMARK   99  A    between atoms: _279  and  _280
REMARK  100  A    between atoms: _282  and  _284
REMARK  101  A    between atoms: _284  and  _285
REMARK  102  A    between atoms: _284  and  _287
REMARK  103  A    between atoms: _287  and  _288
REMARK  104  A    between atoms: _290  and  _292
REMARK  105  A    between atoms: _292  and  _293
REMARK  106  A    between atoms: _292  and  _295
REMARK  107  A    between atoms: _295  and  _296
REMARK  108  A    between atoms: _299  and  _301
REMARK  109  A    between atoms: _301  and  _302
REMARK  110  A    between atoms: _301  and  _304
REMARK  111  A    between atoms: _304  and  _305
REMARK  112  A    between atoms: _308  and  _310
REMARK  113  A    between atoms: _310  and  _311
REMARK  114  A    between atoms: _310  and  _313
REMARK  115  A    between atoms: _313  and  _314
REMARK  116  A    between atoms: _318  and  _319
REMARK  117  A    between atoms: _325  and  _326
REMARK  118  A    between atoms: _331  and  _333
REMARK  119  A    between atoms: _333  and  _334
REMARK  120  A    between atoms: _333  and  _336
REMARK  121  A    between atoms: _336  and  _337
REMARK  122  A    between atoms: _340  and  _342
REMARK  123  A    between atoms: _342  and  _343
REMARK  124  A    between atoms: _342  and  _345
REMARK  125  A    between atoms: _345  and  _346
REMARK  126  A    between atoms: _349  and  _351
REMARK  127  A    between atoms: _351  and  _352
REMARK  128  A    between atoms: _351  and  _354
REMARK  129  A    between atoms: _356  and  _358
REMARK  130  A    between atoms: _358  and  _359
REMARK  131  A    between atoms: _358  and  _361
REMARK  132  A    between atoms: _364  and  _366
REMARK  133  A    between atoms: _366  and  _367
REMARK  134  A    between atoms: _366  and  _369
REMARK  135  A    between atoms: _369  and  _370
REMARK  136  A    between atoms: _380  and  _382
REMARK  137  A    between atoms: _382  and  _383
REMARK  138  A    between atoms: _382  and  _385
REMARK  139  A    between atoms: _385  and  _386
REMARK  140  A    between atoms: _391  and  _393
REMARK  141  A    between atoms: _393  and  _394
REMARK  142  A    between atoms: _393  and  _396
REMARK  143  A    between atoms: _396  and  _397
REMARK  144  A    between atoms: _397  and  _398
REMARK  145  A    between atoms: _398  and  _399
REMARK                            x       y       z     vdW  Elec       q    Type
REMARK                         _______ _______ _______ _____ _____    ______ ____
ROOT
ATOM      1  CB  ASN A   1      12.748   2.708   6.897  0.00  0.00    +0.110 C 
ENDROOT
BRANCH   1   2
ATOM      2  CG  ASN A   1      13.789   2.466   7.917  0.00  0.00    +0.221 C 
ATOM      3  OD1 ASN A   1      13.879   1.382   8.477  0.00  0.00    -0.275 OA
ATOM      4  ND2 ASN A   1      14.654   3.447   8.129  0.00  0.00    -0.329 N 
ATOM      5 HD21 ASN A   1      15.444   3.310   8.791  0.00  0.00    +0.145 HD
ATOM      6 HD22 ASN A   1      14.543   4.354   7.633  0.00  0.00    +0.145 HD
ENDBRANCH   1   2
BRANCH   1   7
ATOM      7  CA  ASN A   1      11.977   1.427   6.523  0.00  0.00    +0.142 C 
BRANCH   7   8
ATOM      8  N   ASN A   1      12.788   0.533   5.789  0.00  0.00    -0.239 NA
ATOM      9  H   ASN A   1      13.307   0.877   4.956  0.00  0.00    +0.142 HD
ENDBRANCH   7   8
BRANCH   7  10
ATOM     10  C   ASN A   1      10.815   1.803   5.695  0.00  0.00    +0.225 C 
ATOM     11  O   ASN A   1      10.977   2.147   4.496  0.00  0.00    -0.287 OA
ENDBRANCH   7  10
ENDBRANCH   1   7
TORSDOF 4
REMARK  Name = ../refined-set-2016/3s78/3s78_pocket.pdb
REMARK  145 active torsions:
REMARK  status: ('A' for Active; 'I' for Inactive)
REMARK    1  A    between atoms: _1  and  _3
REMARK    2  A    between atoms: _3  and  _4
REMARK    3  A    between atoms: _3  and  _6
REMARK    4  A    between atoms: _6  and  _7
REMARK    5  A    between atoms: _17  and  _19
REMARK    6  A    between atoms: _19  and  _20
REMARK    7  A    between atoms: _19  and  _22
REMARK    8  A    between atoms: _22  and  _23
REMARK    9  A    between atoms: _28  and  _29
REMARK   10  A    between atoms: _31  and  _33
REMARK   11  A    between atoms: _33  and  _34
REMARK   12  A    between atoms: _33  and  _36
REMARK   13  A    between atoms: _36  and  _37
REMARK   14  A    between atoms: _40  and  _41
REMARK   15  A    between atoms: _46  and  _48
REMARK   16  A    between atoms: _48  and  _49
REMARK   17  A    between atoms: _48  and  _51
REMARK   18  A    between atoms: _51  and  _52
REMARK   19  A    between atoms: _57  and  _59
REMARK   20  A    between atoms: _59  and  _60
REMARK   21  A    between atoms: _63  and  _65
REMARK   22  A    between atoms: _65  and  _66
REMARK   23  A    between atoms: _65  and  _68
REMARK   24  A    between atoms: _68  and  _69
REMARK   25  A    between atoms: _74  and  _76
REMARK   26  A    between atoms: _76  and  _77
REMARK   27  A    between atoms: _76  and  _79
REMARK   28  A    between atoms: _79  and  _80
REMARK   29  A    between atoms: _83  and  _85
REMARK   30  A    between atoms: _85  and  _86
REMARK   31  A    between atoms: _85  and  _88
REMARK   32  A    between atoms: _88  and  _89
REMARK   33  A    between atoms: _89  and  _90
REMARK   34  A    between atoms: _95  and  _97
REMARK   35  A    between atoms: _97  and  _98
REMARK   36  A    between atoms: _97  and  _100
REMARK   37  A    between atoms: _100  and  _101
REMARK   38  A    between atoms: _107  and  _109
REMARK   39  A    between atoms: _120  and  _123
REMARK   40  A    between atoms: _123  and  _124
REMARK   41  A    between atoms: _132  and  _133
REMARK   42  A    between atoms: _141  and  _143
REMARK   43  A    between atoms: _143  and  _144
REMARK   44  A    between atoms: _143  and  _146
REMARK   45  A    between atoms: _146  and  _147
REMARK   46  A    between atoms: _147  and  _148
REMARK   47  A    between atoms: _151  and  _153
REMARK   48  A    between atoms: _153  and  _154
REMARK   49  A    between atoms: _153  and  _156
REMARK   50  A    between atoms: _156  and  _157
REMARK   51  A    between atoms: _162  and  _164
REMARK   52  A    between atoms: _164  and  _165
REMARK   53  A    between atoms: _164  and  _167
REMARK   54  A    between atoms: _167  and  _168
REMARK   55  A    between atoms: _168  and  _169
REMARK   56  A    between atoms: _172  and  _174
REMARK   57  A    between atoms: _174  and  _175
REMARK   58  A    between atoms: _174  and  _177
REMARK   59  A    between atoms: _177  and  _178
REMARK   60  A    between atoms: _181  and  _183
REMARK   61  A    between atoms: _183  and  _184
REMARK   62  A    between atoms: _183  and  _186
REMARK   63  A    between atoms: _186  and  _187
REMARK   64  A    between atoms: _188  and  ZN_408
REMARK   65  A    between atoms: _192  and  _194
REMARK   66  A    between atoms: _194  and  _195
REMARK   67  A    between atoms: _194  and  _197
REMARK   68  A    between atoms: _197  and  _198
REMARK   69  A    between atoms: _201  and  _203
REMARK   70  A    between atoms: _203  and  _204
REMARK   71  A    between atoms: _203  and  _206
REMARK   72  A    between atoms: _209  and  _211
REMARK   73  A    between atoms: _211  and  _212
REMARK   74  A    between atoms: _211  and  _214
REMARK   75  A    between atoms: _214  and  _215
REMARK   76  A    between atoms: _220  and  _222
REMARK   77  A    between atoms: _222  and  _223
REMARK   78  A    between atoms: _222  and  _225
REMARK   79  A    between atoms: _225  and  _226
REMARK   80  A    between atoms: _232  and  _234
REMARK   81  A    between atoms: _234  and  _235
REMARK   82  A    between atoms: _234  and  _237
REMARK   83  A    between atoms: _240  and  _242
REMARK   84  A    between atoms: _242  and  _243
REMARK   85  A    between atoms: _242  and  _245
REMARK   86  A    between atoms: _245  and  _246
REMARK   87  A    between atoms: _249  and  _251
REMARK   88  A    between atoms: _251  and  _252
REMARK   89  A    between atoms: _255  and  _257
REMARK   90  A    between atoms: _257  and  _258
REMARK   91  A    between atoms: _257  and  _260
REMARK   92  A    between atoms: _263  and  _265
REMARK   93  A    between atoms: _265  and  _266
REMARK   94  A    between atoms: _265  and  _268
REMARK   95  A    between atoms: _268  and  _269
REMARK   96  A    between atoms: _272  and  _274
REMARK   97  A    between atoms: _274  and  _275
REMARK   98  A    between atoms: _277  and  _279
REMARK   99  A    between atoms: _279  and  _280
REMARK  100  A    between atoms: _282  and  _284
REMARK  101  A    between atoms: _284  and  _285
REMARK  102  A    between atoms: _284  and  _287
REMARK  103  A    between atoms: _287  and  _288
REMARK  104  A    between atoms: _290  and  _292
REMARK  105  A    between atoms: _292  and  _293
REMARK  106  A    between atoms: _292  and  _295
REMARK  107  A    between atoms: _295  and  _296
REMARK  108  A    between atoms: _299  and  _301
REMARK  109  A    between atoms: _301  and  _302
REMARK  110  A    between atoms: _301  and  _304
REMARK  111  A    between atoms: _304  and  _305
REMARK  112  A    between atoms: _308  and  _310
REMARK  113  A    between atoms: _310  and  _311
REMARK  114  A    between atoms: _310  and  _313
REMARK  115  A    between atoms: _313  and  _314
REMARK  116  A    between atoms: _318  and  _319
REMARK  117  A    between atoms: _325  and  _326
REMARK  118  A    between atoms: _331  and  _333
REMARK  119  A    between atoms: _333  and  _334
REMARK  120  A    between atoms: _333  and  _336
REMARK  121  A    between atoms: _336  and  _337
REMARK  122  A    between atoms: _340  and  _342
REMARK  123  A    between atoms: _342  and  _343
REMARK  124  A    between atoms: _342  and  _345
REMARK  125  A    between atoms: _345  and  _346
REMARK  126  A    between atoms: _349  and  _351
REMARK  127  A    between atoms: _351  and  _352
REMARK  128  A    between atoms: _351  and  _354
REMARK  129  A    between atoms: _356  and  _358
REMARK  130  A    between atoms: _358  and  _359
REMARK  131  A    between atoms: _358  and  _361
REMARK  132  A    between atoms: _364  and  _366
REMARK  133  A    between atoms: _366  and  _367
REMARK  134  A    between atoms: _366  and  _369
REMARK  135  A    between atoms: _369  and  _370
REMARK  136  A    between atoms: _380  and  _382
REMARK  137  A    between atoms: _382  and  _383
REMARK  138  A    between atoms: _382  and  _385
REMARK  139  A    between atoms: _385  and  _386
REMARK  140  A    between atoms: _391  and  _393
REMARK  141  A    between atoms: _393  and  _394
REMARK  142  A    between atoms: _393  and  _396
REMARK  143  A    between atoms: _396  and  _397
REMARK  144  A    between atoms: _397  and  _398
REMARK  145  A    between atoms: _398  and  _399
REMARK                            x       y       z     vdW  Elec       q    Type
REMARK                         _______ _______ _______ _____ _____    ______ ____
ROOT
ATOM      1  C   UNK A   4      10.926  -1.335  10.179  0.00  0.00    +0.000 C 
ATOM      2  C   UNK A   4      10.834  -2.611  11.005  0.00  0.00    +0.000 C 
ATOM      3  O   UNK A   4      10.189  -2.634  12.058  0.00  0.00    +0.000 OA
ATOM      4  N   VAL A   5      11.510  -3.665  10.549  0.00  0.00    +0.000 N 
ATOM      5  CA  VAL A   5      11.490  -4.957  11.265  0.00  0.00    +0.000 C 
ATOM      6  C   VAL A   5      12.913  -5.418  11.490  0.00  0.00    +0.000 C 
ATOM      7  N   UNK A   6      13.093  -6.296  12.457  0.00  0.00    +0.000 N 
ATOM      8  H   UNK A   6      12.323  -6.432  13.143  0.00  0.00    +0.000 HD
ATOM      9  C   UNK A   6      14.332  -7.105  12.627  0.00  0.00    +0.000 C 
ATOM     10  C   UNK A   6      14.957  -6.877  13.999  0.00  0.00    +0.000 C 
ATOM     11  C   UNK A   6      15.263  -5.427  14.256  0.00  0.00    +0.000 A 
ATOM     12  C   UNK A   6      14.479  -4.414  14.710  0.00  0.00    +0.000 A 
ATOM     13  N   UNK A   6      15.243  -3.263  14.689  0.00  0.00    +0.000 N 
ATOM     14 ZN   UNK A   6      14.365  -1.508  15.245  0.00  0.00    +0.000 Zn
ATOM     15  N   UNK A   4      13.693  -0.629  13.559  0.00  0.00    +0.000 N 
ATOM     16  C   UNK A   4      13.192   0.588  13.383  0.00  0.00    +0.000 A 
ATOM     17  N   UNK A   4      12.677   0.663  12.169  0.00  0.00    +0.000 NA
ATOM     18  C   UNK A   4      12.905  -0.533  11.504  0.00  0.00    +0.000 A 
ATOM     19  C   UNK A   4      13.506  -1.353  12.399  0.00  0.00    +0.000 A 
ATOM     20  C   UNK A   6      16.454  -3.564  14.244  0.00  0.00    +0.000 A 
ATOM     21  N   UNK A   6      16.484  -4.859  13.929  0.00  0.00    +0.000 NA
ATOM     22  O   VAL A   5      13.842  -4.945  10.810  0.00  0.00    +0.000 OA
ATOM     23  H   VAL A   5      12.062  -3.576   9.672  0.00  0.00    +0.000 HD
ATOM     24  C   UNK A   4      12.360  -0.812  10.136  0.00  0.00    +0.000 C 
ENDROOT
BRANCH  14  25
ATOM     25  N   UNK A   6      13.006  -2.210  16.482  0.00  0.00    +0.000 N 
ATOM     26  C   UNK A   6      13.301  -3.122  17.395  0.00  0.00    +0.000 A 
ATOM     27  N   UNK A   6      12.181  -3.501  17.981  0.00  0.00    +0.000 NA
ATOM     28  C   UNK A   6      11.140  -2.771  17.462  0.00  0.00    +0.000 A 
ATOM     29  C   UNK A   6      11.648  -1.969  16.494  0.00  0.00    +0.000 A 
BRANCH  29  30
ATOM     30  C   UNK A   6      10.949  -0.974  15.582  0.00  0.00    +0.000 C 
BRANCH  30  31
ATOM     31  C   UNK A   6       9.420  -1.228  15.487  0.00  0.00    +0.000 C 
BRANCH  31  32
ATOM     32  C   UNK A   6       8.707  -0.069  14.829  0.00  0.00    +0.000 C 
ATOM     33  N   UNK A   4       7.701   0.468  15.510  0.00  0.00    +0.000 N 
ATOM     34  H   UNK A   4       7.400   0.026  16.402  0.00  0.00    +0.000 HD
ATOM     35  O   UNK A   6       9.007   0.299  13.687  0.00  0.00    +0.000 OA
BRANCH  33  36
ATOM     36  C   UNK A   4       7.000   1.673  15.034  0.00  0.00    +0.000 C 
BRANCH  36  37
ATOM     37  C   UNK A   4       7.623   2.831  15.860  0.00  0.00    +0.000 C 
ATOM     38  O   UNK A   4       7.511   2.874  17.101  0.00  0.00    +0.000 OA
ATOM     39  N   VAL A   5       8.325   3.709  15.171  0.00  0.00    +0.000 N 
ATOM     40  H   VAL A   5       8.242   3.711  14.134  0.00  0.00    +0.000 HD
BRANCH  39  41
ATOM     41  CA  VAL A   5       9.216   4.681  15.806  0.00  0.00    +0.000 C 
BRANCH  41  42
ATOM     42  C   VAL A   5       8.536   6.061  15.841  0.00  0.00    +0.000 C 
ATOM     43  N   UNK A   6       8.419   6.655  17.044  0.00  0.00    +0.000 N 
ATOM     44  H   UNK A   6       8.817   6.201  17.891  0.00  0.00    +0.000 HD
ATOM     45  O   VAL A   5       8.111   6.562  14.785  0.00  0.00    +0.000 OA
BRANCH  43  46
ATOM     46  C   UNK A   6       7.731   7.939  17.156  0.00  0.00    +0.000 C 
BRANCH  46  47
ATOM     47  C   UNK A   6       8.604   8.903  17.869  0.00  0.00    +0.000 C 
ATOM     48  O   UNK A   6       9.352   8.484  18.744  0.00  0.00    +0.000 OA
ENDBRANCH  46  47
BRANCH  46  49
ATOM     49  C   UNK A   6       6.393   7.822  17.909  0.00  0.00    +0.000 C 
BRANCH  49  50
ATOM     50  C   UNK A   6       5.571   6.625  17.518  0.00  0.00    +0.000 A 
ATOM     51  N   UNK A   6       5.984   5.326  17.754  0.00  0.00    +0.000 NA
ATOM     52  C   UNK A   6       5.039   4.488  17.325  0.00  0.00    +0.000 A 
ATOM     53  N   UNK A   6       4.026   5.201  16.833  0.00  0.00    +0.000 NA
ATOM     54  C   UNK A   6       4.336   6.537  16.953  0.00  0.00    +0.000 A 
ENDBRANCH  49  50
ENDBRANCH  46  49
ENDBRANCH  43  46
ENDBRANCH  41  42
BRANCH  41  55
ATOM     55  CB  VAL A   5      10.551   4.777  15.024  0.00  0.00    +0.000 C 
ATOM     56  CG2 VAL A   5      11.563   5.744  15.741  0.00  0.00    +0.000 C 
ATOM     57  CG1 VAL A   5      11.161   3.376  14.750  0.00  0.00    +0.000 C 
ENDBRANCH  41  55
ENDBRANCH  39  41
ENDBRANCH  36  37
BRANCH  36  58
ATOM     58  C   UNK A   4       5.502   1.490  15.244  0.00  0.00    +0.000 C 
BRANCH  58  59
ATOM     59  C   UNK A   4       4.859   0.407  14.297  0.00  0.00    +0.000 C 
ATOM     60  C   UNK A   4       4.141  -0.508  15.198  0.00  0.00    +0.000 C 
ATOM     61  C   UNK A   4       3.839   1.121  13.368  0.00  0.00    +0.000 C 
ENDBRANCH  58  59
ENDBRANCH  36  58
ENDBRANCH  33  36
ENDBRANCH  31  32
BRANCH  31  62
ATOM     62  N   UNK A   6       9.160  -2.454  14.739  0.00  0.00    +0.000 N 
ATOM     63  C   LEU A   2       8.589  -3.560  15.245  0.00  0.00    +0.000 C 
ATOM     64  O   LEU A   2       8.188  -3.622  16.394  0.00  0.00    +0.000 OA
ATOM     65  H   UNK A   6       9.438  -2.473  13.737  0.00  0.00    +0.000 HD
BRANCH  63  66
ATOM     66  CA  LEU A   2       8.334  -4.753  14.258  0.00  0.00    +0.000 C 
BRANCH  66  67
ATOM     67  N   LEU A   2       8.700  -6.072  14.832  0.00  0.00    +0.000 N 
ATOM     68  H   LEU A   2       7.956  -6.618  15.312  0.00  0.00    +0.000 HD
ATOM     69  C   GLU A   1       9.919  -6.600  14.771  0.00  0.00    +0.000 C 
ATOM     70  O   GLU A   1      10.856  -6.113  14.115  0.00  0.00    +0.000 OA
BRANCH  69  71
ATOM     71  CA  GLU A   1      10.115  -7.864  15.617  0.00  0.00    +0.000 C 
BRANCH  71  72
ATOM     72  N   GLU A   1      10.638  -8.932  14.807  0.00  0.00    +0.000 NA
ATOM     73  H   GLU A   1      11.349  -8.712  14.081  0.00  0.00    +0.000 HD
ENDBRANCH  71  72
BRANCH  71  74
ATOM     74  CB  GLU A   1      11.021  -7.618  16.839  0.00  0.00    +0.000 C 
BRANCH  74  75
ATOM     75  CG  GLU A   1      10.506  -6.604  17.904  0.00  0.00    +0.000 C 
BRANCH  75  76
ATOM     76  CD  GLU A   1      11.430  -6.562  19.106  0.00  0.00    +0.000 C 
ATOM     77  OE2 GLU A   1      11.499  -5.497  19.749  0.00  0.00    +0.000 OA
ATOM     78  OE1 GLU A   1      12.130  -7.553  19.392  0.00  0.00    +0.000 OA
ENDBRANCH  75  76
ENDBRANCH  74  75
ENDBRANCH  71  74
ENDBRANCH  69  71
ENDBRANCH  66  67
BRANCH  66  79
ATOM     79  CB  LEU A   2       6.851  -4.799  13.833  0.00  0.00    +0.000 C 
BRANCH  79  80
ATOM     80  CG  LEU A   2       6.076  -3.508  13.537  0.00  0.00    +0.000 C 
ATOM     81  CD2 LEU A   2       4.572  -3.914  13.363  0.00  0.00    +0.000 C 
ATOM     82  CD1 LEU A   2       6.668  -2.858  12.287  0.00  0.00    +0.000 C 
ENDBRANCH  79  80
ENDBRANCH  66  79
ENDBRANCH  63  66
ENDBRANCH  31  62
ENDBRANCH  30  31
ENDBRANCH  29  30
ENDBRANCH  14  25
BRANCH   1  84
ATOM     83  C   UNK A   3       9.461   0.574  10.098  0.00  0.00    +0.000 C 
ATOM     84  N   UNK A   4      10.049  -0.385  10.799  0.00  0.00    +0.000 N 
ATOM     85  H   UNK A   4       9.870  -0.450  11.821  0.00  0.00    +0.000 HD
ATOM     86  O   UNK A   3       9.720   0.757   8.875  0.00  0.00    +0.000 OA
BRANCH  83  87
ATOM     87  C   UNK A   3       8.558   1.505  10.909  0.00  0.00    +0.000 C 
BRANCH  87  90
ATOM     88  C   LEU A   2       8.640   3.914  11.076  0.00  0.00    +0.000 C 
ATOM     89  O   LEU A   2       8.542   3.952  12.317  0.00  0.00    +0.000 OA
ATOM     90  N   UNK A   3       8.463   2.808  10.341  0.00  0.00    +0.000 N 
ATOM     91  H   UNK A   3       8.250   2.903   9.327  0.00  0.00    +0.000 HD
BRANCH  88  92
ATOM     92  CA  LEU A   2       8.893   5.180  10.272  0.00  0.00    +0.000 C 
BRANCH  92  94
ATOM     93  C   GLU A   1       8.387   7.551  10.547  0.00  0.00    +0.000 C 
ATOM     94  N   LEU A   2       8.547   6.341  11.078  0.00  0.00    +0.000 N 
ATOM     95  H   LEU A   2       8.420   6.221  12.103  0.00  0.00    +0.000 HD
ATOM     96  O   GLU A   1       8.427   7.750   9.325  0.00  0.00    +0.000 OA
BRANCH  93  97
ATOM     97  CA  GLU A   1       8.109   8.716  11.521  0.00  0.00    +0.000 C 
BRANCH  97  98
ATOM     98  CB  GLU A   1       9.433   9.363  12.032  0.00  0.00    +0.000 C 
ATOM     99  CG2 GLU A   1      10.146   8.474  13.052  0.00  0.00    +0.000 C 
BRANCH  98 100
ATOM    100  CG1 GLU A   1      10.377   9.624  10.825  0.00  0.00    +0.000 C 
ATOM    101  CD1 GLU A   1      11.557  10.508  11.170  0.00  0.00    +0.000 C 
ENDBRANCH  98 100
ENDBRANCH  97  98
BRANCH  97 102
ATOM    102  N   GLU A   1       7.196   8.382  12.602  0.00  0.00    +0.000 NA
ATOM    103  H   GLU A   1       7.531   7.756  13.362  0.00  0.00    +0.000 HD
ENDBRANCH  97 102
ENDBRANCH  93  97
ENDBRANCH  92  94
BRANCH  92 104
ATOM    104  CB  LEU A   2      10.380   5.254   9.750  0.00  0.00    +0.000 C 
BRANCH 104 105
ATOM    105  CG  LEU A   2      11.483   5.364  10.914  0.00  0.00    +0.000 C 
BRANCH 105 106
ATOM    106  CD  LEU A   2      12.195   4.053  11.184  0.00  0.00    +0.000 C 
ATOM    107  NE2 LEU A   2      13.393   4.170  11.727  0.00  0.00    +0.000 N 
ATOM    108 HE21 LEU A   2      13.934   3.319  11.982  0.00  0.00    +0.000 HD
ATOM    109 HE22 LEU A   2      13.796   5.113  11.900  0.00  0.00    +0.000 HD
ATOM    110  OE1 LEU A   2      11.665   2.936  10.955  0.00  0.00    +0.000 OA
ENDBRANCH 105 106
ENDBRANCH 104 105
ENDBRANCH  92 104
ENDBRANCH  88  92
ENDBRANCH  87  90
BRANCH  87 111
ATOM    111  C   UNK A   3       7.177   0.892  11.227  0.00  0.00    +0.000 C 
BRANCH 111 112
ATOM    112  C   UNK A   3       6.443   0.393   9.997  0.00  0.00    +0.000 A 
ATOM    113  C   UNK A   3       5.381   1.130   9.492  0.00  0.00    +0.000 A 
ATOM    114  C   UNK A   3       4.665   0.674   8.346  0.00  0.00    +0.000 A 
ATOM    115  C   UNK A   3       5.061  -0.530   7.702  0.00  0.00    +0.000 A 
ATOM    116  C   UNK A   3       6.124  -1.261   8.200  0.00  0.00    +0.000 A 
ATOM    117  C   UNK A   3       6.790  -0.817   9.369  0.00  0.00    +0.000 A 
ENDBRANCH 111 112
ENDBRANCH  87 111
ENDBRANCH  83  87
ENDBRANCH   1  84
BRANCH   9 118
ATOM    118  C   UNK A   6      13.902  -8.548  12.495  0.00  0.00    +0.000 C 
ATOM    119  O   UNK A   6      12.876  -8.918  13.093  0.00  0.00    +0.000 OA
ENDBRANCH   9 118
BRANCH   5 120
ATOM    120  CB  VAL A   5      10.815  -6.039  10.398  0.00  0.00    +0.000 C 
BRANCH 120 121
ATOM    121  CG  VAL A   5       9.352  -5.772  10.099  0.00  0.00    +0.000 A 
ATOM    122  CD2 VAL A   5       8.357  -6.355  10.870  0.00  0.00    +0.000 A 
ATOM    123  CE2 VAL A   5       7.030  -6.158  10.560  0.00  0.00    +0.000 A 
ATOM    124  CZ  VAL A   5       6.672  -5.333   9.430  0.00  0.00    +0.000 A 
ATOM    125  CE1 VAL A   5       7.619  -4.769   8.704  0.00  0.00    +0.000 A 
ATOM    126  CD1 VAL A   5       8.987  -4.970   9.027  0.00  0.00    +0.000 A 
ENDBRANCH 120 121
ENDBRANCH   5 120
TORSDOF 42
REMARK  Name = ../refined-set-2016/3s78/3s78_pocket.pdb
REMARK  145 active torsions:
REMARK  status: ('A' for Active; 'I' for Inactive)
REMARK    1  A    between atoms: _1  and  _3
REMARK    2  A    between atoms: _3  and  _4
REMARK    3  A    between atoms: _3  and  _6
REMARK    4  A    between atoms: _6  and  _7
REMARK    5  A    between atoms: _17  and  _19
REMARK    6  A    between atoms: _19  and  _20
REMARK    7  A    between atoms: _19  and  _22
REMARK    8  A    between atoms: _22  and  _23
REMARK    9  A    between atoms: _28  and  _29
REMARK   10  A    between atoms: _31  and  _33
REMARK   11  A    between atoms: _33  and  _34
REMARK   12  A    between atoms: _33  and  _36
REMARK   13  A    between atoms: _36  and  _37
REMARK   14  A    between atoms: _40  and  _41
REMARK   15  A    between atoms: _46  and  _48
REMARK   16  A    between atoms: _48  and  _49
REMARK   17  A    between atoms: _48  and  _51
REMARK   18  A    between atoms: _51  and  _52
REMARK   19  A    between atoms: _57  and  _59
REMARK   20  A    between atoms: _59  and  _60
REMARK   21  A    between atoms: _63  and  _65
REMARK   22  A    between atoms: _65  and  _66
REMARK   23  A    between atoms: _65  and  _68
REMARK   24  A    between atoms: _68  and  _69
REMARK   25  A    between atoms: _74  and  _76
REMARK   26  A    between atoms: _76  and  _77
REMARK   27  A    between atoms: _76  and  _79
REMARK   28  A    between atoms: _79  and  _80
REMARK   29  A    between atoms: _83  and  _85
REMARK   30  A    between atoms: _85  and  _86
REMARK   31  A    between atoms: _85  and  _88
REMARK   32  A    between atoms: _88  and  _89
REMARK   33  A    between atoms: _89  and  _90
REMARK   34  A    between atoms: _95  and  _97
REMARK   35  A    between atoms: _97  and  _98
REMARK   36  A    between atoms: _97  and  _100
REMARK   37  A    between atoms: _100  and  _101
REMARK   38  A    between atoms: _107  and  _109
REMARK   39  A    between atoms: _120  and  _123
REMARK   40  A    between atoms: _123  and  _124
REMARK   41  A    between atoms: _132  and  _133
REMARK   42  A    between atoms: _141  and  _143
REMARK   43  A    between atoms: _143  and  _144
REMARK   44  A    between atoms: _143  and  _146
REMARK   45  A    between atoms: _146  and  _147
REMARK   46  A    between atoms: _147  and  _148
REMARK   47  A    between atoms: _151  and  _153
REMARK   48  A    between atoms: _153  and  _154
REMARK   49  A    between atoms: _153  and  _156
REMARK   50  A    between atoms: _156  and  _157
REMARK   51  A    between atoms: _162  and  _164
REMARK   52  A    between atoms: _164  and  _165
REMARK   53  A    between atoms: _164  and  _167
REMARK   54  A    between atoms: _167  and  _168
REMARK   55  A    between atoms: _168  and  _169
REMARK   56  A    between atoms: _172  and  _174
REMARK   57  A    between atoms: _174  and  _175
REMARK   58  A    between atoms: _174  and  _177
REMARK   59  A    between atoms: _177  and  _178
REMARK   60  A    between atoms: _181  and  _183
REMARK   61  A    between atoms: _183  and  _184
REMARK   62  A    between atoms: _183  and  _186
REMARK   63  A    between atoms: _186  and  _187
REMARK   64  A    between atoms: _188  and  ZN_408
REMARK   65  A    between atoms: _192  and  _194
REMARK   66  A    between atoms: _194  and  _195
REMARK   67  A    between atoms: _194  and  _197
REMARK   68  A    between atoms: _197  and  _198
REMARK   69  A    between atoms: _201  and  _203
REMARK   70  A    between atoms: _203  and  _204
REMARK   71  A    between atoms: _203  and  _206
REMARK   72  A    between atoms: _209  and  _211
REMARK   73  A    between atoms: _211  and  _212
REMARK   74  A    between atoms: _211  and  _214
REMARK   75  A    between atoms: _214  and  _215
REMARK   76  A    between atoms: _220  and  _222
REMARK   77  A    between atoms: _222  and  _223
REMARK   78  A    between atoms: _222  and  _225
REMARK   79  A    between atoms: _225  and  _226
REMARK   80  A    between atoms: _232  and  _234
REMARK   81  A    between atoms: _234  and  _235
REMARK   82  A    between atoms: _234  and  _237
REMARK   83  A    between atoms: _240  and  _242
REMARK   84  A    between atoms: _242  and  _243
REMARK   85  A    between atoms: _242  and  _245
REMARK   86  A    between atoms: _245  and  _246
REMARK   87  A    between atoms: _249  and  _251
REMARK   88  A    between atoms: _251  and  _252
REMARK   89  A    between atoms: _255  and  _257
REMARK   90  A    between atoms: _257  and  _258
REMARK   91  A    between atoms: _257  and  _260
REMARK   92  A    between atoms: _263  and  _265
REMARK   93  A    between atoms: _265  and  _266
REMARK   94  A    between atoms: _265  and  _268
REMARK   95  A    between atoms: _268  and  _269
REMARK   96  A    between atoms: _272  and  _274
REMARK   97  A    between atoms: _274  and  _275
REMARK   98  A    between atoms: _277  and  _279
REMARK   99  A    between atoms: _279  and  _280
REMARK  100  A    between atoms: _282  and  _284
REMARK  101  A    between atoms: _284  and  _285
REMARK  102  A    between atoms: _284  and  _287
REMARK  103  A    between atoms: _287  and  _288
REMARK  104  A    between atoms: _290  and  _292
REMARK  105  A    between atoms: _292  and  _293
REMARK  106  A    between atoms: _292  and  _295
REMARK  107  A    between atoms: _295  and  _296
REMARK  108  A    between atoms: _299  and  _301
REMARK  109  A    between atoms: _301  and  _302
REMARK  110  A    between atoms: _301  and  _304
REMARK  111  A    between atoms: _304  and  _305
REMARK  112  A    between atoms: _308  and  _310
REMARK  113  A    between atoms: _310  and  _311
REMARK  114  A    between atoms: _310  and  _313
REMARK  115  A    between atoms: _313  and  _314
REMARK  116  A    between atoms: _318  and  _319
REMARK  117  A    between atoms: _325  and  _326
REMARK  118  A    between atoms: _331  and  _333
REMARK  119  A    between atoms: _333  and  _334
REMARK  120  A    between atoms: _333  and  _336
REMARK  121  A    between atoms: _336  and  _337
REMARK  122  A    between atoms: _340  and  _342
REMARK  123  A    between atoms: _342  and  _343
REMARK  124  A    between atoms: _342  and  _345
REMARK  125  A    between atoms: _345  and  _346
REMARK  126  A    between atoms: _349  and  _351
REMARK  127  A    between atoms: _351  and  _352
REMARK  128  A    between atoms: _351  and  _354
REMARK  129  A    between atoms: _356  and  _358
REMARK  130  A    between atoms: _358  and  _359
REMARK  131  A    between atoms: _358  and  _361
REMARK  132  A    between atoms: _364  and  _366
REMARK  133  A    between atoms: _366  and  _367
REMARK  134  A    between atoms: _366  and  _369
REMARK  135  A    between atoms: _369  and  _370
REMARK  136  A    between atoms: _380  and  _382
REMARK  137  A    between atoms: _382  and  _383
REMARK  138  A    between atoms: _382  and  _385
REMARK  139  A    between atoms: _385  and  _386
REMARK  140  A    between atoms: _391  and  _393
REMARK  141  A    between atoms: _393  and  _394
REMARK  142  A    between atoms: _393  and  _396
REMARK  143  A    between atoms: _396  and  _397
REMARK  144  A    between atoms: _397  and  _398
REMARK  145  A    between atoms: _398  and  _399
REMARK                            x       y       z     vdW  Elec       q    Type
REMARK                         _______ _______ _______ _____ _____    ______ ____
ROOT
ATOM      1  C   GLU A   1      15.175  -8.323  20.954  0.00  0.00    +0.238 C 
ATOM      2  O   GLU A   1      15.988  -8.851  21.720  0.00  0.00    -0.274 OA
ATOM      3  N   HIS A   2      13.974  -7.900  21.387  0.00  0.00    -0.298 N 
ATOM      4  H   HIS A   2      13.365  -7.315  20.780  0.00  0.00    +0.150 HD
ENDROOT
BRANCH   1   5
ATOM      5  CA  GLU A   1      15.501  -8.153  19.453  0.00  0.00    +0.145 C 
BRANCH   5   6
ATOM      6  N   GLU A   1      14.469  -8.827  18.646  0.00  0.00    -0.238 NA
ATOM      7  H   GLU A   1      13.603  -8.310  18.391  0.00  0.00    +0.142 HD
ENDBRANCH   5   6
BRANCH   5   8
ATOM      8  CB  GLU A   1      15.604  -6.684  19.020  0.00  0.00    +0.038 C 
BRANCH   8   9
ATOM      9  CG  GLU A   1      16.023  -6.544  17.546  0.00  0.00    +0.116 C 
BRANCH   9  10
ATOM     10  CD  GLU A   1      16.751  -5.223  17.325  0.00  0.00    +0.365 C 
ATOM     11  OE2 GLU A   1      16.123  -4.165  17.533  0.00  0.00    -0.246 OA
ATOM     12  OE1 GLU A   1      17.939  -5.229  16.955  0.00  0.00    -0.246 OA
ENDBRANCH   9  10
ENDBRANCH   8   9
ENDBRANCH   5   8
ENDBRANCH   1   5
BRANCH   3  13
ATOM     13  CA  HIS A   2      13.552  -8.276  22.710  0.00  0.00    +0.143 C 
BRANCH  13  14
ATOM     14  C   HIS A   2      13.215  -9.739  22.746  0.00  0.00    +0.227 C 
ATOM     15  O   HIS A   2      12.914 -10.383  21.696  0.00  0.00    -0.286 OA
ENDBRANCH  13  14
BRANCH  13  16
ATOM     16  CB  HIS A   2      12.394  -7.425  23.150  0.00  0.00    +0.075 C 
BRANCH  16  17
ATOM     17  CG  HIS A   2      12.734  -5.971  23.279  0.00  0.00    +0.082 A 
ATOM     18  CD2 HIS A   2      13.101  -5.236  24.354  0.00  0.00    +0.115 A 
ATOM     19  NE2 HIS A   2      13.321  -3.962  23.905  0.00  0.00    -0.221 NA
ATOM     20  CE1 HIS A   2      13.073  -3.905  22.607  0.00  0.00    +0.199 A 
ATOM     21  ND1 HIS A   2      12.719  -5.104  22.203  0.00  0.00    -0.227 NA
ENDBRANCH  16  17
ENDBRANCH  13  16
ENDBRANCH   3  13
TORSDOF 9
REMARK  Name = ../refined-set-2016/3s78/3s78_pocket.pdb
REMARK  145 active torsions:
REMARK  status: ('A' for Active; 'I' for Inactive)
REMARK    1  A    between atoms: _1  and  _3
REMARK    2  A    between atoms: _3  and  _4
REMARK    3  A    between atoms: _3  and  _6
REMARK    4  A    between atoms: _6  and  _7
REMARK    5  A    between atoms: _17  and  _19
REMARK    6  A    between atoms: _19  and  _20
REMARK    7  A    between atoms: _19  and  _22
REMARK    8  A    between atoms: _22  and  _23
REMARK    9  A    between atoms: _28  and  _29
REMARK   10  A    between atoms: _31  and  _33
REMARK   11  A    between atoms: _33  and  _34
REMARK   12  A    between atoms: _33  and  _36
REMARK   13  A    between atoms: _36  and  _37
REMARK   14  A    between atoms: _40  and  _41
REMARK   15  A    between atoms: _46  and  _48
REMARK   16  A    between atoms: _48  and  _49
REMARK   17  A    between atoms: _48  and  _51
REMARK   18  A    between atoms: _51  and  _52
REMARK   19  A    between atoms: _57  and  _59
REMARK   20  A    between atoms: _59  and  _60
REMARK   21  A    between atoms: _63  and  _65
REMARK   22  A    between atoms: _65  and  _66
REMARK   23  A    between atoms: _65  and  _68
REMARK   24  A    between atoms: _68  and  _69
REMARK   25  A    between atoms: _74  and  _76
REMARK   26  A    between atoms: _76  and  _77
REMARK   27  A    between atoms: _76  and  _79
REMARK   28  A    between atoms: _79  and  _80
REMARK   29  A    between atoms: _83  and  _85
REMARK   30  A    between atoms: _85  and  _86
REMARK   31  A    between atoms: _85  and  _88
REMARK   32  A    between atoms: _88  and  _89
REMARK   33  A    between atoms: _89  and  _90
REMARK   34  A    between atoms: _95  and  _97
REMARK   35  A    between atoms: _97  and  _98
REMARK   36  A    between atoms: _97  and  _100
REMARK   37  A    between atoms: _100  and  _101
REMARK   38  A    between atoms: _107  and  _109
REMARK   39  A    between atoms: _120  and  _123
REMARK   40  A    between atoms: _123  and  _124
REMARK   41  A    between atoms: _132  and  _133
REMARK   42  A    between atoms: _141  and  _143
REMARK   43  A    between atoms: _143  and  _144
REMARK   44  A    between atoms: _143  and  _146
REMARK   45  A    between atoms: _146  and  _147
REMARK   46  A    between atoms: _147  and  _148
REMARK   47  A    between atoms: _151  and  _153
REMARK   48  A    between atoms: _153  and  _154
REMARK   49  A    between atoms: _153  and  _156
REMARK   50  A    between atoms: _156  and  _157
REMARK   51  A    between atoms: _162  and  _164
REMARK   52  A    between atoms: _164  and  _165
REMARK   53  A    between atoms: _164  and  _167
REMARK   54  A    between atoms: _167  and  _168
REMARK   55  A    between atoms: _168  and  _169
REMARK   56  A    between atoms: _172  and  _174
REMARK   57  A    between atoms: _174  and  _175
REMARK   58  A    between atoms: _174  and  _177
REMARK   59  A    between atoms: _177  and  _178
REMARK   60  A    between atoms: _181  and  _183
REMARK   61  A    between atoms: _183  and  _184
REMARK   62  A    between atoms: _183  and  _186
REMARK   63  A    between atoms: _186  and  _187
REMARK   64  A    between atoms: _188  and  ZN_408
REMARK   65  A    between atoms: _192  and  _194
REMARK   66  A    between atoms: _194  and  _195
REMARK   67  A    between atoms: _194  and  _197
REMARK   68  A    between atoms: _197  and  _198
REMARK   69  A    between atoms: _201  and  _203
REMARK   70  A    between atoms: _203  and  _204
REMARK   71  A    between atoms: _203  and  _206
REMARK   72  A    between atoms: _209  and  _211
REMARK   73  A    between atoms: _211  and  _212
REMARK   74  A    between atoms: _211  and  _214
REMARK   75  A    between atoms: _214  and  _215
REMARK   76  A    between atoms: _220  and  _222
REMARK   77  A    between atoms: _222  and  _223
REMARK   78  A    between atoms: _222  and  _225
REMARK   79  A    between atoms: _225  and  _226
REMARK   80  A    between atoms: _232  and  _234
REMARK   81  A    between atoms: _234  and  _235
REMARK   82  A    between atoms: _234  and  _237
REMARK   83  A    between atoms: _240  and  _242
REMARK   84  A    between atoms: _242  and  _243
REMARK   85  A    between atoms: _242  and  _245
REMARK   86  A    between atoms: _245  and  _246
REMARK   87  A    between atoms: _249  and  _251
REMARK   88  A    between atoms: _251  and  _252
REMARK   89  A    between atoms: _255  and  _257
REMARK   90  A    between atoms: _257  and  _258
REMARK   91  A    between atoms: _257  and  _260
REMARK   92  A    between atoms: _263  and  _265
REMARK   93  A    between atoms: _265  and  _266
REMARK   94  A    between atoms: _265  and  _268
REMARK   95  A    between atoms: _268  and  _269
REMARK   96  A    between atoms: _272  and  _274
REMARK   97  A    between atoms: _274  and  _275
REMARK   98  A    between atoms: _277  and  _279
REMARK   99  A    between atoms: _279  and  _280
REMARK  100  A    between atoms: _282  and  _284
REMARK  101  A    between atoms: _284  and  _285
REMARK  102  A    between atoms: _284  and  _287
REMARK  103  A    between atoms: _287  and  _288
REMARK  104  A    between atoms: _290  and  _292
REMARK  105  A    between atoms: _292  and  _293
REMARK  106  A    between atoms: _292  and  _295
REMARK  107  A    between atoms: _295  and  _296
REMARK  108  A    between atoms: _299  and  _301
REMARK  109  A    between atoms: _301  and  _302
REMARK  110  A    between atoms: _301  and  _304
REMARK  111  A    between atoms: _304  and  _305
REMARK  112  A    between atoms: _308  and  _310
REMARK  113  A    between atoms: _310  and  _311
REMARK  114  A    between atoms: _310  and  _313
REMARK  115  A    between atoms: _313  and  _314
REMARK  116  A    between atoms: _318  and  _319
REMARK  117  A    between atoms: _325  and  _326
REMARK  118  A    between atoms: _331  and  _333
REMARK  119  A    between atoms: _333  and  _334
REMARK  120  A    between atoms: _333  and  _336
REMARK  121  A    between atoms: _336  and  _337
REMARK  122  A    between atoms: _340  and  _342
REMARK  123  A    between atoms: _342  and  _343
REMARK  124  A    between atoms: _342  and  _345
REMARK  125  A    between atoms: _345  and  _346
REMARK  126  A    between atoms: _349  and  _351
REMARK  127  A    between atoms: _351  and  _352
REMARK  128  A    between atoms: _351  and  _354
REMARK  129  A    between atoms: _356  and  _358
REMARK  130  A    between atoms: _358  and  _359
REMARK  131  A    between atoms: _358  and  _361
REMARK  132  A    between atoms: _364  and  _366
REMARK  133  A    between atoms: _366  and  _367
REMARK  134  A    between atoms: _366  and  _369
REMARK  135  A    between atoms: _369  and  _370
REMARK  136  A    between atoms: _380  and  _382
REMARK  137  A    between atoms: _382  and  _383
REMARK  138  A    between atoms: _382  and  _385
REMARK  139  A    between atoms: _385  and  _386
REMARK  140  A    between atoms: _391  and  _393
REMARK  141  A    between atoms: _393  and  _394
REMARK  142  A    between atoms: _393  and  _396
REMARK  143  A    between atoms: _396  and  _397
REMARK  144  A    between atoms: _397  and  _398
REMARK  145  A    between atoms: _398  and  _399
REMARK                            x       y       z     vdW  Elec       q    Type
REMARK                         _______ _______ _______ _____ _____    ______ ____
ROOT
ATOM      1  CB  PHE A   1      13.362  12.461  13.802  0.00  0.00    +0.051 C 
ENDROOT
BRANCH   1   2
ATOM      2  CG  PHE A   1      14.016  11.158  14.115  0.00  0.00    -0.020 A 
ATOM      3  CD2 PHE A   1      13.335  10.180  14.831  0.00  0.00    -0.004 A 
ATOM      4  CE2 PHE A   1      13.963   8.928  15.131  0.00  0.00    -0.000 A 
ATOM      5  CZ  PHE A   1      15.301   8.703  14.707  0.00  0.00    -0.000 A 
ATOM      6  CE1 PHE A   1      15.978   9.675  13.988  0.00  0.00    -0.000 A 
ATOM      7  CD1 PHE A   1      15.342  10.897  13.693  0.00  0.00    -0.004 A 
ENDBRANCH   1   2
BRANCH   1   8
ATOM      8  CA  PHE A   1      13.429  13.478  14.967  0.00  0.00    +0.137 C 
BRANCH   8   9
ATOM      9  N   PHE A   1      12.789  14.756  14.593  0.00  0.00    -0.239 NA
ATOM     10  H   PHE A   1      12.435  14.873  13.622  0.00  0.00    +0.142 HD
ENDBRANCH   8   9
BRANCH   8  11
ATOM     11  C   PHE A   1      14.896  13.673  15.402  0.00  0.00    +0.224 C 
ATOM     12  O   PHE A   1      15.344  13.123  16.424  0.00  0.00    -0.287 OA
ENDBRANCH   8  11
ENDBRANCH   1   8
TORSDOF 4
REMARK  Name = ../refined-set-2016/3s78/3s78_pocket.pdb
REMARK  145 active torsions:
REMARK  status: ('A' for Active; 'I' for Inactive)
REMARK    1  A    between atoms: _1  and  _3
REMARK    2  A    between atoms: _3  and  _4
REMARK    3  A    between atoms: _3  and  _6
REMARK    4  A    between atoms: _6  and  _7
REMARK    5  A    between atoms: _17  and  _19
REMARK    6  A    between atoms: _19  and  _20
REMARK    7  A    between atoms: _19  and  _22
REMARK    8  A    between atoms: _22  and  _23
REMARK    9  A    between atoms: _28  and  _29
REMARK   10  A    between atoms: _31  and  _33
REMARK   11  A    between atoms: _33  and  _34
REMARK   12  A    between atoms: _33  and  _36
REMARK   13  A    between atoms: _36  and  _37
REMARK   14  A    between atoms: _40  and  _41
REMARK   15  A    between atoms: _46  and  _48
REMARK   16  A    between atoms: _48  and  _49
REMARK   17  A    between atoms: _48  and  _51
REMARK   18  A    between atoms: _51  and  _52
REMARK   19  A    between atoms: _57  and  _59
REMARK   20  A    between atoms: _59  and  _60
REMARK   21  A    between atoms: _63  and  _65
REMARK   22  A    between atoms: _65  and  _66
REMARK   23  A    between atoms: _65  and  _68
REMARK   24  A    between atoms: _68  and  _69
REMARK   25  A    between atoms: _74  and  _76
REMARK   26  A    between atoms: _76  and  _77
REMARK   27  A    between atoms: _76  and  _79
REMARK   28  A    between atoms: _79  and  _80
REMARK   29  A    between atoms: _83  and  _85
REMARK   30  A    between atoms: _85  and  _86
REMARK   31  A    between atoms: _85  and  _88
REMARK   32  A    between atoms: _88  and  _89
REMARK   33  A    between atoms: _89  and  _90
REMARK   34  A    between atoms: _95  and  _97
REMARK   35  A    between atoms: _97  and  _98
REMARK   36  A    between atoms: _97  and  _100
REMARK   37  A    between atoms: _100  and  _101
REMARK   38  A    between atoms: _107  and  _109
REMARK   39  A    between atoms: _120  and  _123
REMARK   40  A    between atoms: _123  and  _124
REMARK   41  A    between atoms: _132  and  _133
REMARK   42  A    between atoms: _141  and  _143
REMARK   43  A    between atoms: _143  and  _144
REMARK   44  A    between atoms: _143  and  _146
REMARK   45  A    between atoms: _146  and  _147
REMARK   46  A    between atoms: _147  and  _148
REMARK   47  A    between atoms: _151  and  _153
REMARK   48  A    between atoms: _153  and  _154
REMARK   49  A    between atoms: _153  and  _156
REMARK   50  A    between atoms: _156  and  _157
REMARK   51  A    between atoms: _162  and  _164
REMARK   52  A    between atoms: _164  and  _165
REMARK   53  A    between atoms: _164  and  _167
REMARK   54  A    between atoms: _167  and  _168
REMARK   55  A    between atoms: _168  and  _169
REMARK   56  A    between atoms: _172  and  _174
REMARK   57  A    between atoms: _174  and  _175
REMARK   58  A    between atoms: _174  and  _177
REMARK   59  A    between atoms: _177  and  _178
REMARK   60  A    between atoms: _181  and  _183
REMARK   61  A    between atoms: _183  and  _184
REMARK   62  A    between atoms: _183  and  _186
REMARK   63  A    between atoms: _186  and  _187
REMARK   64  A    between atoms: _188  and  ZN_408
REMARK   65  A    between atoms: _192  and  _194
REMARK   66  A    between atoms: _194  and  _195
REMARK   67  A    between atoms: _194  and  _197
REMARK   68  A    between atoms: _197  and  _198
REMARK   69  A    between atoms: _201  and  _203
REMARK   70  A    between atoms: _203  and  _204
REMARK   71  A    between atoms: _203  and  _206
REMARK   72  A    between atoms: _209  and  _211
REMARK   73  A    between atoms: _211  and  _212
REMARK   74  A    between atoms: _211  and  _214
REMARK   75  A    between atoms: _214  and  _215
REMARK   76  A    between atoms: _220  and  _222
REMARK   77  A    between atoms: _222  and  _223
REMARK   78  A    between atoms: _222  and  _225
REMARK   79  A    between atoms: _225  and  _226
REMARK   80  A    between atoms: _232  and  _234
REMARK   81  A    between atoms: _234  and  _235
REMARK   82  A    between atoms: _234  and  _237
REMARK   83  A    between atoms: _240  and  _242
REMARK   84  A    between atoms: _242  and  _243
REMARK   85  A    between atoms: _242  and  _245
REMARK   86  A    between atoms: _245  and  _246
REMARK   87  A    between atoms: _249  and  _251
REMARK   88  A    between atoms: _251  and  _252
REMARK   89  A    between atoms: _255  and  _257
REMARK   90  A    between atoms: _257  and  _258
REMARK   91  A    between atoms: _257  and  _260
REMARK   92  A    between atoms: _263  and  _265
REMARK   93  A    between atoms: _265  and  _266
REMARK   94  A    between atoms: _265  and  _268
REMARK   95  A    between atoms: _268  and  _269
REMARK   96  A    between atoms: _272  and  _274
REMARK   97  A    between atoms: _274  and  _275
REMARK   98  A    between atoms: _277  and  _279
REMARK   99  A    between atoms: _279  and  _280
REMARK  100  A    between atoms: _282  and  _284
REMARK  101  A    between atoms: _284  and  _285
REMARK  102  A    between atoms: _284  and  _287
REMARK  103  A    between atoms: _287  and  _288
REMARK  104  A    between atoms: _290  and  _292
REMARK  105  A    between atoms: _292  and  _293
REMARK  106  A    between atoms: _292  and  _295
REMARK  107  A    between atoms: _295  and  _296
REMARK  108  A    between atoms: _299  and  _301
REMARK  109  A    between atoms: _301  and  _302
REMARK  110  A    between atoms: _301  and  _304
REMARK  111  A    between atoms: _304  and  _305
REMARK  112  A    between atoms: _308  and  _310
REMARK  113  A    between atoms: _310  and  _311
REMARK  114  A    between atoms: _310  and  _313
REMARK  115  A    between atoms: _313  and  _314
REMARK  116  A    between atoms: _318  and  _319
REMARK  117  A    between atoms: _325  and  _326
REMARK  118  A    between atoms: _331  and  _333
REMARK  119  A    between atoms: _333  and  _334
REMARK  120  A    between atoms: _333  and  _336
REMARK  121  A    between atoms: _336  and  _337
REMARK  122  A    between atoms: _340  and  _342
REMARK  123  A    between atoms: _342  and  _343
REMARK  124  A    between atoms: _342  and  _345
REMARK  125  A    between atoms: _345  and  _346
REMARK  126  A    between atoms: _349  and  _351
REMARK  127  A    between atoms: _351  and  _352
REMARK  128  A    between atoms: _351  and  _354
REMARK  129  A    between atoms: _356  and  _358
REMARK  130  A    between atoms: _358  and  _359
REMARK  131  A    between atoms: _358  and  _361
REMARK  132  A    between atoms: _364  and  _366
REMARK  133  A    between atoms: _366  and  _367
REMARK  134  A    between atoms: _366  and  _369
REMARK  135  A    between atoms: _369  and  _370
REMARK  136  A    between atoms: _380  and  _382
REMARK  137  A    between atoms: _382  and  _383
REMARK  138  A    between atoms: _382  and  _385
REMARK  139  A    between atoms: _385  and  _386
REMARK  140  A    between atoms: _391  and  _393
REMARK  141  A    between atoms: _393  and  _394
REMARK  142  A    between atoms: _393  and  _396
REMARK  143  A    between atoms: _396  and  _397
REMARK  144  A    between atoms: _397  and  _398
REMARK  145  A    between atoms: _398  and  _399
REMARK                            x       y       z     vdW  Elec       q    Type
REMARK                         _______ _______ _______ _____ _____    ______ ____
ROOT
ATOM      1  CA  VAL A   1      17.177  11.444  19.593  0.00  0.00    +0.133 C 
ENDROOT
BRANCH   1   2
ATOM      2  CB  VAL A   1      17.830  10.686  18.376  0.00  0.00    +0.023 C 
ATOM      3  CG2 VAL A   1      16.735   9.906  17.615  0.00  0.00    +0.002 C 
ATOM      4  CG1 VAL A   1      18.652  11.624  17.468  0.00  0.00    +0.002 C 
ENDBRANCH   1   2
BRANCH   1   5
ATOM      5  N   VAL A   1      16.222  12.541  19.255  0.00  0.00    -0.239 NA
ATOM      6  H   VAL A   1      16.139  12.879  18.275  0.00  0.00    +0.142 HD
ENDBRANCH   1   5
BRANCH   1   7
ATOM      7  C   VAL A   1      18.261  11.920  20.540  0.00  0.00    +0.224 C 
ATOM      8  O   VAL A   1      18.962  11.095  21.136  0.00  0.00    -0.287 OA
ENDBRANCH   1   7
TORSDOF 3
REMARK  Name = ../refined-set-2016/3s78/3s78_pocket.pdb
REMARK  145 active torsions:
REMARK  status: ('A' for Active; 'I' for Inactive)
REMARK    1  A    between atoms: _1  and  _3
REMARK    2  A    between atoms: _3  and  _4
REMARK    3  A    between atoms: _3  and  _6
REMARK    4  A    between atoms: _6  and  _7
REMARK    5  A    between atoms: _17  and  _19
REMARK    6  A    between atoms: _19  and  _20
REMARK    7  A    between atoms: _19  and  _22
REMARK    8  A    between atoms: _22  and  _23
REMARK    9  A    between atoms: _28  and  _29
REMARK   10  A    between atoms: _31  and  _33
REMARK   11  A    between atoms: _33  and  _34
REMARK   12  A    between atoms: _33  and  _36
REMARK   13  A    between atoms: _36  and  _37
REMARK   14  A    between atoms: _40  and  _41
REMARK   15  A    between atoms: _46  and  _48
REMARK   16  A    between atoms: _48  and  _49
REMARK   17  A    between atoms: _48  and  _51
REMARK   18  A    between atoms: _51  and  _52
REMARK   19  A    between atoms: _57  and  _59
REMARK   20  A    between atoms: _59  and  _60
REMARK   21  A    between atoms: _63  and  _65
REMARK   22  A    between atoms: _65  and  _66
REMARK   23  A    between atoms: _65  and  _68
REMARK   24  A    between atoms: _68  and  _69
REMARK   25  A    between atoms: _74  and  _76
REMARK   26  A    between atoms: _76  and  _77
REMARK   27  A    between atoms: _76  and  _79
REMARK   28  A    between atoms: _79  and  _80
REMARK   29  A    between atoms: _83  and  _85
REMARK   30  A    between atoms: _85  and  _86
REMARK   31  A    between atoms: _85  and  _88
REMARK   32  A    between atoms: _88  and  _89
REMARK   33  A    between atoms: _89  and  _90
REMARK   34  A    between atoms: _95  and  _97
REMARK   35  A    between atoms: _97  and  _98
REMARK   36  A    between atoms: _97  and  _100
REMARK   37  A    between atoms: _100  and  _101
REMARK   38  A    between atoms: _107  and  _109
REMARK   39  A    between atoms: _120  and  _123
REMARK   40  A    between atoms: _123  and  _124
REMARK   41  A    between atoms: _132  and  _133
REMARK   42  A    between atoms: _141  and  _143
REMARK   43  A    between atoms: _143  and  _144
REMARK   44  A    between atoms: _143  and  _146
REMARK   45  A    between atoms: _146  and  _147
REMARK   46  A    between atoms: _147  and  _148
REMARK   47  A    between atoms: _151  and  _153
REMARK   48  A    between atoms: _153  and  _154
REMARK   49  A    between atoms: _153  and  _156
REMARK   50  A    between atoms: _156  and  _157
REMARK   51  A    between atoms: _162  and  _164
REMARK   52  A    between atoms: _164  and  _165
REMARK   53  A    between atoms: _164  and  _167
REMARK   54  A    between atoms: _167  and  _168
REMARK   55  A    between atoms: _168  and  _169
REMARK   56  A    between atoms: _172  and  _174
REMARK   57  A    between atoms: _174  and  _175
REMARK   58  A    between atoms: _174  and  _177
REMARK   59  A    between atoms: _177  and  _178
REMARK   60  A    between atoms: _181  and  _183
REMARK   61  A    between atoms: _183  and  _184
REMARK   62  A    between atoms: _183  and  _186
REMARK   63  A    between atoms: _186  and  _187
REMARK   64  A    between atoms: _188  and  ZN_408
REMARK   65  A    between atoms: _192  and  _194
REMARK   66  A    between atoms: _194  and  _195
REMARK   67  A    between atoms: _194  and  _197
REMARK   68  A    between atoms: _197  and  _198
REMARK   69  A    between atoms: _201  and  _203
REMARK   70  A    between atoms: _203  and  _204
REMARK   71  A    between atoms: _203  and  _206
REMARK   72  A    between atoms: _209  and  _211
REMARK   73  A    between atoms: _211  and  _212
REMARK   74  A    between atoms: _211  and  _214
REMARK   75  A    between atoms: _214  and  _215
REMARK   76  A    between atoms: _220  and  _222
REMARK   77  A    between atoms: _222  and  _223
REMARK   78  A    between atoms: _222  and  _225
REMARK   79  A    between atoms: _225  and  _226
REMARK   80  A    between atoms: _232  and  _234
REMARK   81  A    between atoms: _234  and  _235
REMARK   82  A    between atoms: _234  and  _237
REMARK   83  A    between atoms: _240  and  _242
REMARK   84  A    between atoms: _242  and  _243
REMARK   85  A    between atoms: _242  and  _245
REMARK   86  A    between atoms: _245  and  _246
REMARK   87  A    between atoms: _249  and  _251
REMARK   88  A    between atoms: _251  and  _252
REMARK   89  A    between atoms: _255  and  _257
REMARK   90  A    between atoms: _257  and  _258
REMARK   91  A    between atoms: _257  and  _260
REMARK   92  A    between atoms: _263  and  _265
REMARK   93  A    between atoms: _265  and  _266
REMARK   94  A    between atoms: _265  and  _268
REMARK   95  A    between atoms: _268  and  _269
REMARK   96  A    between atoms: _272  and  _274
REMARK   97  A    between atoms: _274  and  _275
REMARK   98  A    between atoms: _277  and  _279
REMARK   99  A    between atoms: _279  and  _280
REMARK  100  A    between atoms: _282  and  _284
REMARK  101  A    between atoms: _284  and  _285
REMARK  102  A    between atoms: _284  and  _287
REMARK  103  A    between atoms: _287  and  _288
REMARK  104  A    between atoms: _290  and  _292
REMARK  105  A    between atoms: _292  and  _293
REMARK  106  A    between atoms: _292  and  _295
REMARK  107  A    between atoms: _295  and  _296
REMARK  108  A    between atoms: _299  and  _301
REMARK  109  A    between atoms: _301  and  _302
REMARK  110  A    between atoms: _301  and  _304
REMARK  111  A    between atoms: _304  and  _305
REMARK  112  A    between atoms: _308  and  _310
REMARK  113  A    between atoms: _310  and  _311
REMARK  114  A    between atoms: _310  and  _313
REMARK  115  A    between atoms: _313  and  _314
REMARK  116  A    between atoms: _318  and  _319
REMARK  117  A    between atoms: _325  and  _326
REMARK  118  A    between atoms: _331  and  _333
REMARK  119  A    between atoms: _333  and  _334
REMARK  120  A    between atoms: _333  and  _336
REMARK  121  A    between atoms: _336  and  _337
REMARK  122  A    between atoms: _340  and  _342
REMARK  123  A    between atoms: _342  and  _343
REMARK  124  A    between atoms: _342  and  _345
REMARK  125  A    between atoms: _345  and  _346
REMARK  126  A    between atoms: _349  and  _351
REMARK  127  A    between atoms: _351  and  _352
REMARK  128  A    between atoms: _351  and  _354
REMARK  129  A    between atoms: _356  and  _358
REMARK  130  A    between atoms: _358  and  _359
REMARK  131  A    between atoms: _358  and  _361
REMARK  132  A    between atoms: _364  and  _366
REMARK  133  A    between atoms: _366  and  _367
REMARK  134  A    between atoms: _366  and  _369
REMARK  135  A    between atoms: _369  and  _370
REMARK  136  A    between atoms: _380  and  _382
REMARK  137  A    between atoms: _382  and  _383
REMARK  138  A    between atoms: _382  and  _385
REMARK  139  A    between atoms: _385  and  _386
REMARK  140  A    between atoms: _391  and  _393
REMARK  141  A    between atoms: _393  and  _394
REMARK  142  A    between atoms: _393  and  _396
REMARK  143  A    between atoms: _396  and  _397
REMARK  144  A    between atoms: _397  and  _398
REMARK  145  A    between atoms: _398  and  _399
REMARK                            x       y       z     vdW  Elec       q    Type
REMARK                         _______ _______ _______ _____ _____    ______ ____
ROOT
ATOM      1  CA  VAL A   3       9.222   2.843  19.968  0.00  0.00    +0.149 C 
ENDROOT
BRANCH   1   3
ATOM      2  C   ALA A   2       8.758   5.058  20.768  0.00  0.00    +0.241 C 
ATOM      3  N   VAL A   3       9.291   3.864  20.986  0.00  0.00    -0.297 N 
ATOM      4  H   VAL A   3       9.760   3.663  21.892  0.00  0.00    +0.150 HD
ATOM      5  O   ALA A   2       8.308   5.396  19.683  0.00  0.00    -0.273 OA
BRANCH   2   6
ATOM      6  CA  ALA A   2       8.806   6.083  21.919  0.00  0.00    +0.149 C 
ATOM      7  CB  ALA A   2       7.404   6.581  22.278  0.00  0.00    +0.031 C 
BRANCH   6  10
ATOM      8  C   LEU A   1      10.664   7.671  21.986  0.00  0.00    +0.238 C 
ATOM      9  O   LEU A   1      10.912   7.401  23.141  0.00  0.00    -0.274 OA
ATOM     10  N   ALA A   2       9.604   7.207  21.353  0.00  0.00    -0.297 N 
ATOM     11  H   ALA A   2       9.321   7.631  20.447  0.00  0.00    +0.150 HD
BRANCH   8  12
ATOM     12  CA  LEU A   1      11.547   8.617  21.187  0.00  0.00    +0.145 C 
BRANCH  12  13
ATOM     13  N   LEU A   1      12.233   9.596  22.016  0.00  0.00    -0.238 NA
ATOM     14  H   LEU A   1      12.877   9.258  22.760  0.00  0.00    +0.142 HD
ENDBRANCH  12  13
BRANCH  12  15
ATOM     15  CB  LEU A   1      12.557   7.758  20.384  0.00  0.00    +0.026 C 
BRANCH  15  16
ATOM     16  CG  LEU A   1      13.462   8.442  19.343  0.00  0.00    +0.002 C 
ATOM     17  CD2 LEU A   1      14.014   7.296  18.483  0.00  0.00    +0.000 C 
ATOM     18  CD1 LEU A   1      12.771   9.495  18.436  0.00  0.00    +0.000 C 
ENDBRANCH  15  16
ENDBRANCH  12  15
ENDBRANCH   8  12
ENDBRANCH   6  10
ENDBRANCH   2   6
ENDBRANCH   1   3
BRANCH   1  19
ATOM     19  C   VAL A   3       8.269   1.763  20.453  0.00  0.00    +0.241 C 
ATOM     20  O   VAL A   3       8.453   1.232  21.550  0.00  0.00    -0.273 OA
ATOM     21  N   LEU A   4       7.293   1.417  19.616  0.00  0.00    -0.297 N 
ATOM     22  H   LEU A   4       7.232   1.888  18.691  0.00  0.00    +0.150 HD
BRANCH  21  23
ATOM     23  CA  LEU A   4       6.293   0.383  19.961  0.00  0.00    +0.149 C 
BRANCH  23  24
ATOM     24  C   LEU A   4       6.814  -0.858  19.291  0.00  0.00    +0.241 C 
ATOM     25  N   GLY A   5       7.182  -1.894  20.061  0.00  0.00    -0.296 N 
ATOM     26  H   GLY A   5       7.099  -1.789  21.092  0.00  0.00    +0.150 HD
ATOM     27  O   LEU A   4       6.911  -0.859  18.077  0.00  0.00    -0.273 OA
BRANCH  25  28
ATOM     28  CA  GLY A   5       7.697  -3.172  19.535  0.00  0.00    +0.163 C 
BRANCH  28  29
ATOM     29  C   GLY A   5       6.606  -4.246  19.511  0.00  0.00    +0.229 C 
ATOM     30  O   GLY A   5       5.878  -4.404  20.479  0.00  0.00    -0.286 OA
ENDBRANCH  28  29
ENDBRANCH  25  28
ENDBRANCH  23  24
BRANCH  23  31
ATOM     31  CB  LEU A   4       4.924   0.819  19.345  0.00  0.00    +0.029 C 
BRANCH  31  32
ATOM     32  CG  LEU A   4       3.762  -0.104  19.479  0.00  0.00    +0.002 C 
ATOM     33  CD2 LEU A   4       3.420  -0.256  20.944  0.00  0.00    +0.000 C 
ATOM     34  CD1 LEU A   4       2.558   0.402  18.652  0.00  0.00    +0.000 C 
ENDBRANCH  31  32
ENDBRANCH  23  31
ENDBRANCH  21  23
ENDBRANCH   1  19
BRANCH   1  35
ATOM     35  CB  VAL A   3      10.625   2.238  19.570  0.00  0.00    +0.027 C 
ATOM     36  CG2 VAL A   3      11.588   3.388  19.252  0.00  0.00    +0.002 C 
ATOM     37  CG1 VAL A   3      10.472   1.240  18.360  0.00  0.00    +0.002 C 
ENDBRANCH   1  35
TORSDOF 15
REMARK  Name = ../refined-set-2016/3s78/3s78_pocket.pdb
REMARK  145 active torsions:
REMARK  status: ('A' for Active; 'I' for Inactive)
REMARK    1  A    between atoms: _1  and  _3
REMARK    2  A    between atoms: _3  and  _4
REMARK    3  A    between atoms: _3  and  _6
REMARK    4  A    between atoms: _6  and  _7
REMARK    5  A    between atoms: _17  and  _19
REMARK    6  A    between atoms: _19  and  _20
REMARK    7  A    between atoms: _19  and  _22
REMARK    8  A    between atoms: _22  and  _23
REMARK    9  A    between atoms: _28  and  _29
REMARK   10  A    between atoms: _31  and  _33
REMARK   11  A    between atoms: _33  and  _34
REMARK   12  A    between atoms: _33  and  _36
REMARK   13  A    between atoms: _36  and  _37
REMARK   14  A    between atoms: _40  and  _41
REMARK   15  A    between atoms: _46  and  _48
REMARK   16  A    between atoms: _48  and  _49
REMARK   17  A    between atoms: _48  and  _51
REMARK   18  A    between atoms: _51  and  _52
REMARK   19  A    between atoms: _57  and  _59
REMARK   20  A    between atoms: _59  and  _60
REMARK   21  A    between atoms: _63  and  _65
REMARK   22  A    between atoms: _65  and  _66
REMARK   23  A    between atoms: _65  and  _68
REMARK   24  A    between atoms: _68  and  _69
REMARK   25  A    between atoms: _74  and  _76
REMARK   26  A    between atoms: _76  and  _77
REMARK   27  A    between atoms: _76  and  _79
REMARK   28  A    between atoms: _79  and  _80
REMARK   29  A    between atoms: _83  and  _85
REMARK   30  A    between atoms: _85  and  _86
REMARK   31  A    between atoms: _85  and  _88
REMARK   32  A    between atoms: _88  and  _89
REMARK   33  A    between atoms: _89  and  _90
REMARK   34  A    between atoms: _95  and  _97
REMARK   35  A    between atoms: _97  and  _98
REMARK   36  A    between atoms: _97  and  _100
REMARK   37  A    between atoms: _100  and  _101
REMARK   38  A    between atoms: _107  and  _109
REMARK   39  A    between atoms: _120  and  _123
REMARK   40  A    between atoms: _123  and  _124
REMARK   41  A    between atoms: _132  and  _133
REMARK   42  A    between atoms: _141  and  _143
REMARK   43  A    between atoms: _143  and  _144
REMARK   44  A    between atoms: _143  and  _146
REMARK   45  A    between atoms: _146  and  _147
REMARK   46  A    between atoms: _147  and  _148
REMARK   47  A    between atoms: _151  and  _153
REMARK   48  A    between atoms: _153  and  _154
REMARK   49  A    between atoms: _153  and  _156
REMARK   50  A    between atoms: _156  and  _157
REMARK   51  A    between atoms: _162  and  _164
REMARK   52  A    between atoms: _164  and  _165
REMARK   53  A    between atoms: _164  and  _167
REMARK   54  A    between atoms: _167  and  _168
REMARK   55  A    between atoms: _168  and  _169
REMARK   56  A    between atoms: _172  and  _174
REMARK   57  A    between atoms: _174  and  _175
REMARK   58  A    between atoms: _174  and  _177
REMARK   59  A    between atoms: _177  and  _178
REMARK   60  A    between atoms: _181  and  _183
REMARK   61  A    between atoms: _183  and  _184
REMARK   62  A    between atoms: _183  and  _186
REMARK   63  A    between atoms: _186  and  _187
REMARK   64  A    between atoms: _188  and  ZN_408
REMARK   65  A    between atoms: _192  and  _194
REMARK   66  A    between atoms: _194  and  _195
REMARK   67  A    between atoms: _194  and  _197
REMARK   68  A    between atoms: _197  and  _198
REMARK   69  A    between atoms: _201  and  _203
REMARK   70  A    between atoms: _203  and  _204
REMARK   71  A    between atoms: _203  and  _206
REMARK   72  A    between atoms: _209  and  _211
REMARK   73  A    between atoms: _211  and  _212
REMARK   74  A    between atoms: _211  and  _214
REMARK   75  A    between atoms: _214  and  _215
REMARK   76  A    between atoms: _220  and  _222
REMARK   77  A    between atoms: _222  and  _223
REMARK   78  A    between atoms: _222  and  _225
REMARK   79  A    between atoms: _225  and  _226
REMARK   80  A    between atoms: _232  and  _234
REMARK   81  A    between atoms: _234  and  _235
REMARK   82  A    between atoms: _234  and  _237
REMARK   83  A    between atoms: _240  and  _242
REMARK   84  A    between atoms: _242  and  _243
REMARK   85  A    between atoms: _242  and  _245
REMARK   86  A    between atoms: _245  and  _246
REMARK   87  A    between atoms: _249  and  _251
REMARK   88  A    between atoms: _251  and  _252
REMARK   89  A    between atoms: _255  and  _257
REMARK   90  A    between atoms: _257  and  _258
REMARK   91  A    between atoms: _257  and  _260
REMARK   92  A    between atoms: _263  and  _265
REMARK   93  A    between atoms: _265  and  _266
REMARK   94  A    between atoms: _265  and  _268
REMARK   95  A    between atoms: _268  and  _269
REMARK   96  A    between atoms: _272  and  _274
REMARK   97  A    between atoms: _274  and  _275
REMARK   98  A    between atoms: _277  and  _279
REMARK   99  A    between atoms: _279  and  _280
REMARK  100  A    between atoms: _282  and  _284
REMARK  101  A    between atoms: _284  and  _285
REMARK  102  A    between atoms: _284  and  _287
REMARK  103  A    between atoms: _287  and  _288
REMARK  104  A    between atoms: _290  and  _292
REMARK  105  A    between atoms: _292  and  _293
REMARK  106  A    between atoms: _292  and  _295
REMARK  107  A    between atoms: _295  and  _296
REMARK  108  A    between atoms: _299  and  _301
REMARK  109  A    between atoms: _301  and  _302
REMARK  110  A    between atoms: _301  and  _304
REMARK  111  A    between atoms: _304  and  _305
REMARK  112  A    between atoms: _308  and  _310
REMARK  113  A    between atoms: _310  and  _311
REMARK  114  A    between atoms: _310  and  _313
REMARK  115  A    between atoms: _313  and  _314
REMARK  116  A    between atoms: _318  and  _319
REMARK  117  A    between atoms: _325  and  _326
REMARK  118  A    between atoms: _331  and  _333
REMARK  119  A    between atoms: _333  and  _334
REMARK  120  A    between atoms: _333  and  _336
REMARK  121  A    between atoms: _336  and  _337
REMARK  122  A    between atoms: _340  and  _342
REMARK  123  A    between atoms: _342  and  _343
REMARK  124  A    between atoms: _342  and  _345
REMARK  125  A    between atoms: _345  and  _346
REMARK  126  A    between atoms: _349  and  _351
REMARK  127  A    between atoms: _351  and  _352
REMARK  128  A    between atoms: _351  and  _354
REMARK  129  A    between atoms: _356  and  _358
REMARK  130  A    between atoms: _358  and  _359
REMARK  131  A    between atoms: _358  and  _361
REMARK  132  A    between atoms: _364  and  _366
REMARK  133  A    between atoms: _366  and  _367
REMARK  134  A    between atoms: _366  and  _369
REMARK  135  A    between atoms: _369  and  _370
REMARK  136  A    between atoms: _380  and  _382
REMARK  137  A    between atoms: _382  and  _383
REMARK  138  A    between atoms: _382  and  _385
REMARK  139  A    between atoms: _385  and  _386
REMARK  140  A    between atoms: _391  and  _393
REMARK  141  A    between atoms: _393  and  _394
REMARK  142  A    between atoms: _393  and  _396
REMARK  143  A    between atoms: _396  and  _397
REMARK  144  A    between atoms: _397  and  _398
REMARK  145  A    between atoms: _398  and  _399
REMARK                            x       y       z     vdW  Elec       q    Type
REMARK                         _______ _______ _______ _____ _____    ______ ____
ROOT
ATOM      1  CA  THR A   5      21.341   0.153  16.041  0.00  0.00    +0.176 C 
ENDROOT
BRANCH   1   2
ATOM      2  C   THR A   5      22.153   1.418  16.316  0.00  0.00    +0.246 C 
ATOM      3  O   THR A   5      21.630   2.376  16.885  0.00  0.00    -0.273 OA
ATOM      4  N   PRO A   6      23.438   1.422  15.914  0.00  0.00    -0.272 N 
ATOM      5  CA  PRO A   6      24.191   2.641  16.059  0.00  0.00    +0.152 C 
ATOM      6  CB  PRO A   6      25.389   2.382  15.134  0.00  0.00    +0.031 C 
ATOM      7  CG  PRO A   6      25.640   0.914  15.363  0.00  0.00    +0.024 C 
ATOM      8  CD  PRO A   6      24.259   0.322  15.350  0.00  0.00    +0.094 C 
BRANCH   5   9
ATOM      9  C   PRO A   6      23.355   3.799  15.529  0.00  0.00    +0.244 C 
ATOM     10  N   PRO A   7      23.394   4.972  16.167  0.00  0.00    -0.272 N 
ATOM     11  CA  PRO A   7      24.270   5.397  17.218  0.00  0.00    +0.152 C 
ATOM     12  CB  PRO A   7      24.303   6.930  17.045  0.00  0.00    +0.031 C 
ATOM     13  CG  PRO A   7      22.983   7.281  16.500  0.00  0.00    +0.024 C 
ATOM     14  CD  PRO A   7      22.621   6.101  15.601  0.00  0.00    +0.094 C 
ATOM     15  O   PRO A   6      22.681   3.652  14.501  0.00  0.00    -0.273 OA
BRANCH  11  16
ATOM     16  C   PRO A   7      23.831   4.957  18.629  0.00  0.00    +0.241 C 
ATOM     17  O   PRO A   7      24.466   5.337  19.584  0.00  0.00    -0.273 OA
ATOM     18  N   LEU A   8      22.885   4.022  18.746  0.00  0.00    -0.297 N 
ATOM     19  H   LEU A   8      22.353   3.711  17.908  0.00  0.00    +0.150 HD
BRANCH  18  20
ATOM     20  CA  LEU A   8      22.598   3.435  20.060  0.00  0.00    +0.149 C 
BRANCH  20  21
ATOM     21  C   LEU A   8      22.250   4.453  21.142  0.00  0.00    +0.241 C 
ATOM     22  O   LEU A   8      22.495   4.231  22.329  0.00  0.00    -0.273 OA
ATOM     23  N   LEU A   9      21.648   5.563  20.736  0.00  0.00    -0.298 N 
ATOM     24  H   LEU A   9      21.346   5.636  19.743  0.00  0.00    +0.150 HD
BRANCH  23  25
ATOM     25  CA  LEU A   9      21.392   6.696  21.642  0.00  0.00    +0.137 C 
BRANCH  25  26
ATOM     26  C   LEU A   9      20.383   6.276  22.671  0.00  0.00    +0.227 C 
ATOM     27  O   LEU A   9      19.371   5.588  22.373  0.00  0.00    -0.286 OA
ENDBRANCH  25  26
BRANCH  25  28
ATOM     28  CB  LEU A   9      20.869   7.942  20.876  0.00  0.00    +0.028 C 
BRANCH  28  29
ATOM     29  CG  LEU A   9      21.913   8.447  19.882  0.00  0.00    +0.002 C 
ATOM     30  CD2 LEU A   9      23.140   9.042  20.621  0.00  0.00    +0.000 C 
ATOM     31  CD1 LEU A   9      21.357   9.512  18.924  0.00  0.00    +0.000 C 
ENDBRANCH  28  29
ENDBRANCH  25  28
ENDBRANCH  23  25
ENDBRANCH  20  21
BRANCH  20  32
ATOM     32  CB  LEU A   8      23.746   2.538  20.520  0.00  0.00    +0.029 C 
BRANCH  32  33
ATOM     33  CG  LEU A   8      24.081   1.332  19.604  0.00  0.00    +0.002 C 
ATOM     34  CD2 LEU A   8      25.393   0.715  20.066  0.00  0.00    +0.000 C 
ATOM     35  CD1 LEU A   8      22.940   0.200  19.650  0.00  0.00    +0.000 C 
ENDBRANCH  32  33
ENDBRANCH  20  32
ENDBRANCH  18  20
ENDBRANCH  11  16
ENDBRANCH   5   9
ENDBRANCH   1   2
BRANCH   1  38
ATOM     36  C   THR A   4      20.111  -0.936  17.796  0.00  0.00    +0.243 C 
ATOM     37  O   THR A   4      20.689  -2.028  17.600  0.00  0.00    -0.273 OA
ATOM     38  N   THR A   5      20.253   0.120  16.996  0.00  0.00    -0.295 N 
ATOM     39  H   THR A   5      19.586   0.916  17.057  0.00  0.00    +0.150 HD
BRANCH  36  40
ATOM     40  CA  THR A   4      19.105  -0.825  18.931  0.00  0.00    +0.176 C 
BRANCH  40  43
ATOM     41  C   LEU A   3      18.853   1.388  19.774  0.00  0.00    +0.241 C 
ATOM     42  O   LEU A   3      19.840   1.225  20.521  0.00  0.00    -0.273 OA
ATOM     43  N   THR A   4      18.391   0.430  18.976  0.00  0.00    -0.295 N 
ATOM     44  H   THR A   4      17.538   0.580  18.400  0.00  0.00    +0.150 HD
BRANCH  41  45
ATOM     45  CA  LEU A   3      18.147   2.722  19.704  0.00  0.00    +0.149 C 
BRANCH  45  48
ATOM     46  C   SER A   2      17.620   2.481  22.076  0.00  0.00    +0.243 C 
ATOM     47  O   SER A   2      16.934   1.463  21.905  0.00  0.00    -0.273 OA
ATOM     48  N   LEU A   3      18.112   3.224  21.075  0.00  0.00    -0.297 N 
ATOM     49  H   LEU A   3      18.476   4.177  21.279  0.00  0.00    +0.150 HD
BRANCH  46  50
ATOM     50  CA  SER A   2      17.993   2.932  23.482  0.00  0.00    +0.178 C 
BRANCH  50  53
ATOM     51  C   GLY A   1      16.892   2.952  25.652  0.00  0.00    +0.240 C 
ATOM     52  O   GLY A   1      16.905   4.169  25.734  0.00  0.00    -0.274 OA
ATOM     53  N   SER A   2      17.302   2.271  24.573  0.00  0.00    -0.295 N 
ATOM     54  H   SER A   2      17.121   1.248  24.517  0.00  0.00    +0.150 HD
BRANCH  51  55
ATOM     55  CA  GLY A   1      16.416   2.138  26.829  0.00  0.00    +0.169 C 
BRANCH  55  56
ATOM     56  N   GLY A   1      15.329   2.845  27.582  0.00  0.00    -0.236 NA
ATOM     57  H   GLY A   1      14.860   3.679  27.174  0.00  0.00    +0.142 HD
ENDBRANCH  55  56
ENDBRANCH  51  55
ENDBRANCH  50  53
BRANCH  50  58
ATOM     58  CB  SER A   2      19.496   2.619  23.582  0.00  0.00    +0.166 C 
BRANCH  58  59
ATOM     59  OG  SER A   2      19.750   1.264  23.187  0.00  0.00    -0.380 OA
ATOM     60  H   SER A   2      19.454   1.133  22.251  0.00  0.00    +0.211 HD
ENDBRANCH  58  59
ENDBRANCH  50  58
ENDBRANCH  46  50
ENDBRANCH  45  48
BRANCH  45  61
ATOM     61  CB  LEU A   3      18.919   3.675  18.794  0.00  0.00    +0.029 C 
BRANCH  61  62
ATOM     62  CG  LEU A   3      18.476   5.147  18.724  0.00  0.00    +0.002 C 
ATOM     63  CD2 LEU A   3      16.992   5.379  18.243  0.00  0.00    +0.000 C 
ATOM     64  CD1 LEU A   3      19.399   5.900  17.833  0.00  0.00    +0.000 C 
ENDBRANCH  61  62
ENDBRANCH  45  61
ENDBRANCH  41  45
ENDBRANCH  40  43
BRANCH  40  65
ATOM     65  CB  THR A   4      18.153  -1.996  18.813  0.00  0.00    +0.137 C 
ATOM     66  CG2 THR A   4      17.138  -2.012  19.960  0.00  0.00    +0.034 C 
BRANCH  65  67
ATOM     67  OG1 THR A   4      17.475  -1.938  17.557  0.00  0.00    -0.382 OA
ATOM     68  HG1 THR A   4      16.853  -2.705  17.483  0.00  0.00    +0.210 HD
ENDBRANCH  65  67
ENDBRANCH  40  65
ENDBRANCH  36  40
ENDBRANCH   1  38
BRANCH   1  69
ATOM     69  CB  THR A   5      20.828   0.199  14.591  0.00  0.00    +0.137 C 
ATOM     70  CG2 THR A   5      20.009  -1.010  14.293  0.00  0.00    +0.034 C 
BRANCH  69  71
ATOM     71  OG1 THR A   5      20.015   1.358  14.425  0.00  0.00    -0.382 OA
ATOM     72  HG1 THR A   5      20.553   2.167  14.616  0.00  0.00    +0.210 HD
ENDBRANCH  69  71
ENDBRANCH   1  69
TORSDOF 28
REMARK  Name = ../refined-set-2016/3s78/3s78_pocket.pdb
REMARK  145 active torsions:
REMARK  status: ('A' for Active; 'I' for Inactive)
REMARK    1  A    between atoms: _1  and  _3
REMARK    2  A    between atoms: _3  and  _4
REMARK    3  A    between atoms: _3  and  _6
REMARK    4  A    between atoms: _6  and  _7
REMARK    5  A    between atoms: _17  and  _19
REMARK    6  A    between atoms: _19  and  _20
REMARK    7  A    between atoms: _19  and  _22
REMARK    8  A    between atoms: _22  and  _23
REMARK    9  A    between atoms: _28  and  _29
REMARK   10  A    between atoms: _31  and  _33
REMARK   11  A    between atoms: _33  and  _34
REMARK   12  A    between atoms: _33  and  _36
REMARK   13  A    between atoms: _36  and  _37
REMARK   14  A    between atoms: _40  and  _41
REMARK   15  A    between atoms: _46  and  _48
REMARK   16  A    between atoms: _48  and  _49
REMARK   17  A    between atoms: _48  and  _51
REMARK   18  A    between atoms: _51  and  _52
REMARK   19  A    between atoms: _57  and  _59
REMARK   20  A    between atoms: _59  and  _60
REMARK   21  A    between atoms: _63  and  _65
REMARK   22  A    between atoms: _65  and  _66
REMARK   23  A    between atoms: _65  and  _68
REMARK   24  A    between atoms: _68  and  _69
REMARK   25  A    between atoms: _74  and  _76
REMARK   26  A    between atoms: _76  and  _77
REMARK   27  A    between atoms: _76  and  _79
REMARK   28  A    between atoms: _79  and  _80
REMARK   29  A    between atoms: _83  and  _85
REMARK   30  A    between atoms: _85  and  _86
REMARK   31  A    between atoms: _85  and  _88
REMARK   32  A    between atoms: _88  and  _89
REMARK   33  A    between atoms: _89  and  _90
REMARK   34  A    between atoms: _95  and  _97
REMARK   35  A    between atoms: _97  and  _98
REMARK   36  A    between atoms: _97  and  _100
REMARK   37  A    between atoms: _100  and  _101
REMARK   38  A    between atoms: _107  and  _109
REMARK   39  A    between atoms: _120  and  _123
REMARK   40  A    between atoms: _123  and  _124
REMARK   41  A    between atoms: _132  and  _133
REMARK   42  A    between atoms: _141  and  _143
REMARK   43  A    between atoms: _143  and  _144
REMARK   44  A    between atoms: _143  and  _146
REMARK   45  A    between atoms: _146  and  _147
REMARK   46  A    between atoms: _147  and  _148
REMARK   47  A    between atoms: _151  and  _153
REMARK   48  A    between atoms: _153  and  _154
REMARK   49  A    between atoms: _153  and  _156
REMARK   50  A    between atoms: _156  and  _157
REMARK   51  A    between atoms: _162  and  _164
REMARK   52  A    between atoms: _164  and  _165
REMARK   53  A    between atoms: _164  and  _167
REMARK   54  A    between atoms: _167  and  _168
REMARK   55  A    between atoms: _168  and  _169
REMARK   56  A    between atoms: _172  and  _174
REMARK   57  A    between atoms: _174  and  _175
REMARK   58  A    between atoms: _174  and  _177
REMARK   59  A    between atoms: _177  and  _178
REMARK   60  A    between atoms: _181  and  _183
REMARK   61  A    between atoms: _183  and  _184
REMARK   62  A    between atoms: _183  and  _186
REMARK   63  A    between atoms: _186  and  _187
REMARK   64  A    between atoms: _188  and  ZN_408
REMARK   65  A    between atoms: _192  and  _194
REMARK   66  A    between atoms: _194  and  _195
REMARK   67  A    between atoms: _194  and  _197
REMARK   68  A    between atoms: _197  and  _198
REMARK   69  A    between atoms: _201  and  _203
REMARK   70  A    between atoms: _203  and  _204
REMARK   71  A    between atoms: _203  and  _206
REMARK   72  A    between atoms: _209  and  _211
REMARK   73  A    between atoms: _211  and  _212
REMARK   74  A    between atoms: _211  and  _214
REMARK   75  A    between atoms: _214  and  _215
REMARK   76  A    between atoms: _220  and  _222
REMARK   77  A    between atoms: _222  and  _223
REMARK   78  A    between atoms: _222  and  _225
REMARK   79  A    between atoms: _225  and  _226
REMARK   80  A    between atoms: _232  and  _234
REMARK   81  A    between atoms: _234  and  _235
REMARK   82  A    between atoms: _234  and  _237
REMARK   83  A    between atoms: _240  and  _242
REMARK   84  A    between atoms: _242  and  _243
REMARK   85  A    between atoms: _242  and  _245
REMARK   86  A    between atoms: _245  and  _246
REMARK   87  A    between atoms: _249  and  _251
REMARK   88  A    between atoms: _251  and  _252
REMARK   89  A    between atoms: _255  and  _257
REMARK   90  A    between atoms: _257  and  _258
REMARK   91  A    between atoms: _257  and  _260
REMARK   92  A    between atoms: _263  and  _265
REMARK   93  A    between atoms: _265  and  _266
REMARK   94  A    between atoms: _265  and  _268
REMARK   95  A    between atoms: _268  and  _269
REMARK   96  A    between atoms: _272  and  _274
REMARK   97  A    between atoms: _274  and  _275
REMARK   98  A    between atoms: _277  and  _279
REMARK   99  A    between atoms: _279  and  _280
REMARK  100  A    between atoms: _282  and  _284
REMARK  101  A    between atoms: _284  and  _285
REMARK  102  A    between atoms: _284  and  _287
REMARK  103  A    between atoms: _287  and  _288
REMARK  104  A    between atoms: _290  and  _292
REMARK  105  A    between atoms: _292  and  _293
REMARK  106  A    between atoms: _292  and  _295
REMARK  107  A    between atoms: _295  and  _296
REMARK  108  A    between atoms: _299  and  _301
REMARK  109  A    between atoms: _301  and  _302
REMARK  110  A    between atoms: _301  and  _304
REMARK  111  A    between atoms: _304  and  _305
REMARK  112  A    between atoms: _308  and  _310
REMARK  113  A    between atoms: _310  and  _311
REMARK  114  A    between atoms: _310  and  _313
REMARK  115  A    between atoms: _313  and  _314
REMARK  116  A    between atoms: _318  and  _319
REMARK  117  A    between atoms: _325  and  _326
REMARK  118  A    between atoms: _331  and  _333
REMARK  119  A    between atoms: _333  and  _334
REMARK  120  A    between atoms: _333  and  _336
REMARK  121  A    between atoms: _336  and  _337
REMARK  122  A    between atoms: _340  and  _342
REMARK  123  A    between atoms: _342  and  _343
REMARK  124  A    between atoms: _342  and  _345
REMARK  125  A    between atoms: _345  and  _346
REMARK  126  A    between atoms: _349  and  _351
REMARK  127  A    between atoms: _351  and  _352
REMARK  128  A    between atoms: _351  and  _354
REMARK  129  A    between atoms: _356  and  _358
REMARK  130  A    between atoms: _358  and  _359
REMARK  131  A    between atoms: _358  and  _361
REMARK  132  A    between atoms: _364  and  _366
REMARK  133  A    between atoms: _366  and  _367
REMARK  134  A    between atoms: _366  and  _369
REMARK  135  A    between atoms: _369  and  _370
REMARK  136  A    between atoms: _380  and  _382
REMARK  137  A    between atoms: _382  and  _383
REMARK  138  A    between atoms: _382  and  _385
REMARK  139  A    between atoms: _385  and  _386
REMARK  140  A    between atoms: _391  and  _393
REMARK  141  A    between atoms: _393  and  _394
REMARK  142  A    between atoms: _393  and  _396
REMARK  143  A    between atoms: _396  and  _397
REMARK  144  A    between atoms: _397  and  _398
REMARK  145  A    between atoms: _398  and  _399
REMARK                            x       y       z     vdW  Elec       q    Type
REMARK                         _______ _______ _______ _____ _____    ______ ____
ROOT
ATOM      1  C   CYS A   1      15.224   7.642  23.850  0.00  0.00    +0.239 C 
ATOM      2  N   VAL A   2      15.097   6.350  24.157  0.00  0.00    -0.298 N 
ATOM      3  H   VAL A   2      15.900   5.851  24.590  0.00  0.00    +0.150 HD
ATOM      4  O   CYS A   1      14.273   8.308  23.475  0.00  0.00    -0.274 OA
ENDROOT
BRANCH   1   5
ATOM      5  CA  CYS A   1      16.626   8.278  23.955  0.00  0.00    +0.156 C 
BRANCH   5   6
ATOM      6  N   CYS A   1      17.670   7.259  24.137  0.00  0.00    -0.237 NA
ATOM      7  H   CYS A   1      17.710   6.467  23.464  0.00  0.00    +0.142 HD
ENDBRANCH   5   6
BRANCH   5   8
ATOM      8  CB  CYS A   1      16.958   9.029  22.696  0.00  0.00    +0.095 C 
ATOM      9  SG  CYS A   1      16.882   7.991  21.179  0.00  0.00    -0.080 S 
ENDBRANCH   5   8
ENDBRANCH   1   5
BRANCH   2  10
ATOM     10  CA  VAL A   2      13.853   5.614  23.899  0.00  0.00    +0.137 C 
BRANCH  10  11
ATOM     11  CB  VAL A   2      14.119   4.312  23.086  0.00  0.00    +0.026 C 
ATOM     12  CG2 VAL A   2      12.731   3.691  22.724  0.00  0.00    +0.002 C 
ATOM     13  CG1 VAL A   2      14.923   4.630  21.773  0.00  0.00    +0.002 C 
ENDBRANCH  10  11
BRANCH  10  14
ATOM     14  C   VAL A   2      13.078   5.122  25.137  0.00  0.00    +0.227 C 
ATOM     15  O   VAL A   2      13.645   4.458  26.023  0.00  0.00    -0.286 OA
ENDBRANCH  10  14
ENDBRANCH   2  10
TORSDOF 6
REMARK  Name = ../refined-set-2016/3s78/3s78_pocket.pdb
REMARK  145 active torsions:
REMARK  status: ('A' for Active; 'I' for Inactive)
REMARK    1  A    between atoms: _1  and  _3
REMARK    2  A    between atoms: _3  and  _4
REMARK    3  A    between atoms: _3  and  _6
REMARK    4  A    between atoms: _6  and  _7
REMARK    5  A    between atoms: _17  and  _19
REMARK    6  A    between atoms: _19  and  _20
REMARK    7  A    between atoms: _19  and  _22
REMARK    8  A    between atoms: _22  and  _23
REMARK    9  A    between atoms: _28  and  _29
REMARK   10  A    between atoms: _31  and  _33
REMARK   11  A    between atoms: _33  and  _34
REMARK   12  A    between atoms: _33  and  _36
REMARK   13  A    between atoms: _36  and  _37
REMARK   14  A    between atoms: _40  and  _41
REMARK   15  A    between atoms: _46  and  _48
REMARK   16  A    between atoms: _48  and  _49
REMARK   17  A    between atoms: _48  and  _51
REMARK   18  A    between atoms: _51  and  _52
REMARK   19  A    between atoms: _57  and  _59
REMARK   20  A    between atoms: _59  and  _60
REMARK   21  A    between atoms: _63  and  _65
REMARK   22  A    between atoms: _65  and  _66
REMARK   23  A    between atoms: _65  and  _68
REMARK   24  A    between atoms: _68  and  _69
REMARK   25  A    between atoms: _74  and  _76
REMARK   26  A    between atoms: _76  and  _77
REMARK   27  A    between atoms: _76  and  _79
REMARK   28  A    between atoms: _79  and  _80
REMARK   29  A    between atoms: _83  and  _85
REMARK   30  A    between atoms: _85  and  _86
REMARK   31  A    between atoms: _85  and  _88
REMARK   32  A    between atoms: _88  and  _89
REMARK   33  A    between atoms: _89  and  _90
REMARK   34  A    between atoms: _95  and  _97
REMARK   35  A    between atoms: _97  and  _98
REMARK   36  A    between atoms: _97  and  _100
REMARK   37  A    between atoms: _100  and  _101
REMARK   38  A    between atoms: _107  and  _109
REMARK   39  A    between atoms: _120  and  _123
REMARK   40  A    between atoms: _123  and  _124
REMARK   41  A    between atoms: _132  and  _133
REMARK   42  A    between atoms: _141  and  _143
REMARK   43  A    between atoms: _143  and  _144
REMARK   44  A    between atoms: _143  and  _146
REMARK   45  A    between atoms: _146  and  _147
REMARK   46  A    between atoms: _147  and  _148
REMARK   47  A    between atoms: _151  and  _153
REMARK   48  A    between atoms: _153  and  _154
REMARK   49  A    between atoms: _153  and  _156
REMARK   50  A    between atoms: _156  and  _157
REMARK   51  A    between atoms: _162  and  _164
REMARK   52  A    between atoms: _164  and  _165
REMARK   53  A    between atoms: _164  and  _167
REMARK   54  A    between atoms: _167  and  _168
REMARK   55  A    between atoms: _168  and  _169
REMARK   56  A    between atoms: _172  and  _174
REMARK   57  A    between atoms: _174  and  _175
REMARK   58  A    between atoms: _174  and  _177
REMARK   59  A    between atoms: _177  and  _178
REMARK   60  A    between atoms: _181  and  _183
REMARK   61  A    between atoms: _183  and  _184
REMARK   62  A    between atoms: _183  and  _186
REMARK   63  A    between atoms: _186  and  _187
REMARK   64  A    between atoms: _188  and  ZN_408
REMARK   65  A    between atoms: _192  and  _194
REMARK   66  A    between atoms: _194  and  _195
REMARK   67  A    between atoms: _194  and  _197
REMARK   68  A    between atoms: _197  and  _198
REMARK   69  A    between atoms: _201  and  _203
REMARK   70  A    between atoms: _203  and  _204
REMARK   71  A    between atoms: _203  and  _206
REMARK   72  A    between atoms: _209  and  _211
REMARK   73  A    between atoms: _211  and  _212
REMARK   74  A    between atoms: _211  and  _214
REMARK   75  A    between atoms: _214  and  _215
REMARK   76  A    between atoms: _220  and  _222
REMARK   77  A    between atoms: _222  and  _223
REMARK   78  A    between atoms: _222  and  _225
REMARK   79  A    between atoms: _225  and  _226
REMARK   80  A    between atoms: _232  and  _234
REMARK   81  A    between atoms: _234  and  _235
REMARK   82  A    between atoms: _234  and  _237
REMARK   83  A    between atoms: _240  and  _242
REMARK   84  A    between atoms: _242  and  _243
REMARK   85  A    between atoms: _242  and  _245
REMARK   86  A    between atoms: _245  and  _246
REMARK   87  A    between atoms: _249  and  _251
REMARK   88  A    between atoms: _251  and  _252
REMARK   89  A    between atoms: _255  and  _257
REMARK   90  A    between atoms: _257  and  _258
REMARK   91  A    between atoms: _257  and  _260
REMARK   92  A    between atoms: _263  and  _265
REMARK   93  A    between atoms: _265  and  _266
REMARK   94  A    between atoms: _265  and  _268
REMARK   95  A    between atoms: _268  and  _269
REMARK   96  A    between atoms: _272  and  _274
REMARK   97  A    between atoms: _274  and  _275
REMARK   98  A    between atoms: _277  and  _279
REMARK   99  A    between atoms: _279  and  _280
REMARK  100  A    between atoms: _282  and  _284
REMARK  101  A    between atoms: _284  and  _285
REMARK  102  A    between atoms: _284  and  _287
REMARK  103  A    between atoms: _287  and  _288
REMARK  104  A    between atoms: _290  and  _292
REMARK  105  A    between atoms: _292  and  _293
REMARK  106  A    between atoms: _292  and  _295
REMARK  107  A    between atoms: _295  and  _296
REMARK  108  A    between atoms: _299  and  _301
REMARK  109  A    between atoms: _301  and  _302
REMARK  110  A    between atoms: _301  and  _304
REMARK  111  A    between atoms: _304  and  _305
REMARK  112  A    between atoms: _308  and  _310
REMARK  113  A    between atoms: _310  and  _311
REMARK  114  A    between atoms: _310  and  _313
REMARK  115  A    between atoms: _313  and  _314
REMARK  116  A    between atoms: _318  and  _319
REMARK  117  A    between atoms: _325  and  _326
REMARK  118  A    between atoms: _331  and  _333
REMARK  119  A    between atoms: _333  and  _334
REMARK  120  A    between atoms: _333  and  _336
REMARK  121  A    between atoms: _336  and  _337
REMARK  122  A    between atoms: _340  and  _342
REMARK  123  A    between atoms: _342  and  _343
REMARK  124  A    between atoms: _342  and  _345
REMARK  125  A    between atoms: _345  and  _346
REMARK  126  A    between atoms: _349  and  _351
REMARK  127  A    between atoms: _351  and  _352
REMARK  128  A    between atoms: _351  and  _354
REMARK  129  A    between atoms: _356  and  _358
REMARK  130  A    between atoms: _358  and  _359
REMARK  131  A    between atoms: _358  and  _361
REMARK  132  A    between atoms: _364  and  _366
REMARK  133  A    between atoms: _366  and  _367
REMARK  134  A    between atoms: _366  and  _369
REMARK  135  A    between atoms: _369  and  _370
REMARK  136  A    between atoms: _380  and  _382
REMARK  137  A    between atoms: _382  and  _383
REMARK  138  A    between atoms: _382  and  _385
REMARK  139  A    between atoms: _385  and  _386
REMARK  140  A    between atoms: _391  and  _393
REMARK  141  A    between atoms: _393  and  _394
REMARK  142  A    between atoms: _393  and  _396
REMARK  143  A    between atoms: _396  and  _397
REMARK  144  A    between atoms: _397  and  _398
REMARK  145  A    between atoms: _398  and  _399
REMARK                            x       y       z     vdW  Elec       q    Type
REMARK                         _______ _______ _______ _____ _____    ______ ____
ROOT
ATOM      1  CG  TRP A   1      12.372   0.114  24.066  0.00  0.00    -0.002 A 
ATOM      2  CD1 TRP A   1      13.626   0.673  24.271  0.00  0.00    +0.068 A 
ATOM      3  NE1 TRP A   1      14.333   0.671  23.066  0.00  0.00    -0.352 N 
ATOM      4  HE1 TRP A   1      15.285   1.066  22.923  0.00  0.00    +0.166 HD
ATOM      5  CE2 TRP A   1      13.565   0.061  22.096  0.00  0.00    +0.056 A 
ATOM      6  CZ2 TRP A   1      13.836  -0.155  20.748  0.00  0.00    +0.017 A 
ATOM      7  CH2 TRP A   1      12.834  -0.756  19.994  0.00  0.00    +0.001 A 
ATOM      8  CZ3 TRP A   1      11.589  -1.075  20.543  0.00  0.00    +0.000 A 
ATOM      9  CE3 TRP A   1      11.298  -0.819  21.865  0.00  0.00    +0.001 A 
ATOM     10  CD2 TRP A   1      12.304  -0.250  22.676  0.00  0.00    +0.013 A 
ENDROOT
BRANCH   1  11
ATOM     11  CB  TRP A   1      11.249  -0.004  25.071  0.00  0.00    +0.053 C 
BRANCH  11  12
ATOM     12  CA  TRP A   1      10.233   1.162  24.790  0.00  0.00    +0.137 C 
BRANCH  12  13
ATOM     13  N   TRP A   1      10.581   2.336  25.578  0.00  0.00    -0.239 NA
ATOM     14  H   TRP A   1      11.054   2.213  26.496  0.00  0.00    +0.142 HD
ENDBRANCH  12  13
BRANCH  12  15
ATOM     15  C   TRP A   1       8.859   0.713  25.255  0.00  0.00    +0.224 C 
ATOM     16  O   TRP A   1       8.637   0.621  26.451  0.00  0.00    -0.287 OA
ENDBRANCH  12  15
ENDBRANCH  11  12
ENDBRANCH   1  11
TORSDOF 4
REMARK  Name = ../refined-set-2016/3s78/3s78_pocket.pdb
REMARK  145 active torsions:
REMARK  status: ('A' for Active; 'I' for Inactive)
REMARK    1  A    between atoms: _1  and  _3
REMARK    2  A    between atoms: _3  and  _4
REMARK    3  A    between atoms: _3  and  _6
REMARK    4  A    between atoms: _6  and  _7
REMARK    5  A    between atoms: _17  and  _19
REMARK    6  A    between atoms: _19  and  _20
REMARK    7  A    between atoms: _19  and  _22
REMARK    8  A    between atoms: _22  and  _23
REMARK    9  A    between atoms: _28  and  _29
REMARK   10  A    between atoms: _31  and  _33
REMARK   11  A    between atoms: _33  and  _34
REMARK   12  A    between atoms: _33  and  _36
REMARK   13  A    between atoms: _36  and  _37
REMARK   14  A    between atoms: _40  and  _41
REMARK   15  A    between atoms: _46  and  _48
REMARK   16  A    between atoms: _48  and  _49
REMARK   17  A    between atoms: _48  and  _51
REMARK   18  A    between atoms: _51  and  _52
REMARK   19  A    between atoms: _57  and  _59
REMARK   20  A    between atoms: _59  and  _60
REMARK   21  A    between atoms: _63  and  _65
REMARK   22  A    between atoms: _65  and  _66
REMARK   23  A    between atoms: _65  and  _68
REMARK   24  A    between atoms: _68  and  _69
REMARK   25  A    between atoms: _74  and  _76
REMARK   26  A    between atoms: _76  and  _77
REMARK   27  A    between atoms: _76  and  _79
REMARK   28  A    between atoms: _79  and  _80
REMARK   29  A    between atoms: _83  and  _85
REMARK   30  A    between atoms: _85  and  _86
REMARK   31  A    between atoms: _85  and  _88
REMARK   32  A    between atoms: _88  and  _89
REMARK   33  A    between atoms: _89  and  _90
REMARK   34  A    between atoms: _95  and  _97
REMARK   35  A    between atoms: _97  and  _98
REMARK   36  A    between atoms: _97  and  _100
REMARK   37  A    between atoms: _100  and  _101
REMARK   38  A    between atoms: _107  and  _109
REMARK   39  A    between atoms: _120  and  _123
REMARK   40  A    between atoms: _123  and  _124
REMARK   41  A    between atoms: _132  and  _133
REMARK   42  A    between atoms: _141  and  _143
REMARK   43  A    between atoms: _143  and  _144
REMARK   44  A    between atoms: _143  and  _146
REMARK   45  A    between atoms: _146  and  _147
REMARK   46  A    between atoms: _147  and  _148
REMARK   47  A    between atoms: _151  and  _153
REMARK   48  A    between atoms: _153  and  _154
REMARK   49  A    between atoms: _153  and  _156
REMARK   50  A    between atoms: _156  and  _157
REMARK   51  A    between atoms: _162  and  _164
REMARK   52  A    between atoms: _164  and  _165
REMARK   53  A    between atoms: _164  and  _167
REMARK   54  A    between atoms: _167  and  _168
REMARK   55  A    between atoms: _168  and  _169
REMARK   56  A    between atoms: _172  and  _174
REMARK   57  A    between atoms: _174  and  _175
REMARK   58  A    between atoms: _174  and  _177
REMARK   59  A    between atoms: _177  and  _178
REMARK   60  A    between atoms: _181  and  _183
REMARK   61  A    between atoms: _183  and  _184
REMARK   62  A    between atoms: _183  and  _186
REMARK   63  A    between atoms: _186  and  _187
REMARK   64  A    between atoms: _188  and  ZN_408
REMARK   65  A    between atoms: _192  and  _194
REMARK   66  A    between atoms: _194  and  _195
REMARK   67  A    between atoms: _194  and  _197
REMARK   68  A    between atoms: _197  and  _198
REMARK   69  A    between atoms: _201  and  _203
REMARK   70  A    between atoms: _203  and  _204
REMARK   71  A    between atoms: _203  and  _206
REMARK   72  A    between atoms: _209  and  _211
REMARK   73  A    between atoms: _211  and  _212
REMARK   74  A    between atoms: _211  and  _214
REMARK   75  A    between atoms: _214  and  _215
REMARK   76  A    between atoms: _220  and  _222
REMARK   77  A    between atoms: _222  and  _223
REMARK   78  A    between atoms: _222  and  _225
REMARK   79  A    between atoms: _225  and  _226
REMARK   80  A    between atoms: _232  and  _234
REMARK   81  A    between atoms: _234  and  _235
REMARK   82  A    between atoms: _234  and  _237
REMARK   83  A    between atoms: _240  and  _242
REMARK   84  A    between atoms: _242  and  _243
REMARK   85  A    between atoms: _242  and  _245
REMARK   86  A    between atoms: _245  and  _246
REMARK   87  A    between atoms: _249  and  _251
REMARK   88  A    between atoms: _251  and  _252
REMARK   89  A    between atoms: _255  and  _257
REMARK   90  A    between atoms: _257  and  _258
REMARK   91  A    between atoms: _257  and  _260
REMARK   92  A    between atoms: _263  and  _265
REMARK   93  A    between atoms: _265  and  _266
REMARK   94  A    between atoms: _265  and  _268
REMARK   95  A    between atoms: _268  and  _269
REMARK   96  A    between atoms: _272  and  _274
REMARK   97  A    between atoms: _274  and  _275
REMARK   98  A    between atoms: _277  and  _279
REMARK   99  A    between atoms: _279  and  _280
REMARK  100  A    between atoms: _282  and  _284
REMARK  101  A    between atoms: _284  and  _285
REMARK  102  A    between atoms: _284  and  _287
REMARK  103  A    between atoms: _287  and  _288
REMARK  104  A    between atoms: _290  and  _292
REMARK  105  A    between atoms: _292  and  _293
REMARK  106  A    between atoms: _292  and  _295
REMARK  107  A    between atoms: _295  and  _296
REMARK  108  A    between atoms: _299  and  _301
REMARK  109  A    between atoms: _301  and  _302
REMARK  110  A    between atoms: _301  and  _304
REMARK  111  A    between atoms: _304  and  _305
REMARK  112  A    between atoms: _308  and  _310
REMARK  113  A    between atoms: _310  and  _311
REMARK  114  A    between atoms: _310  and  _313
REMARK  115  A    between atoms: _313  and  _314
REMARK  116  A    between atoms: _318  and  _319
REMARK  117  A    between atoms: _325  and  _326
REMARK  118  A    between atoms: _331  and  _333
REMARK  119  A    between atoms: _333  and  _334
REMARK  120  A    between atoms: _333  and  _336
REMARK  121  A    between atoms: _336  and  _337
REMARK  122  A    between atoms: _340  and  _342
REMARK  123  A    between atoms: _342  and  _343
REMARK  124  A    between atoms: _342  and  _345
REMARK  125  A    between atoms: _345  and  _346
REMARK  126  A    between atoms: _349  and  _351
REMARK  127  A    between atoms: _351  and  _352
REMARK  128  A    between atoms: _351  and  _354
REMARK  129  A    between atoms: _356  and  _358
REMARK  130  A    between atoms: _358  and  _359
REMARK  131  A    between atoms: _358  and  _361
REMARK  132  A    between atoms: _364  and  _366
REMARK  133  A    between atoms: _366  and  _367
REMARK  134  A    between atoms: _366  and  _369
REMARK  135  A    between atoms: _369  and  _370
REMARK  136  A    between atoms: _380  and  _382
REMARK  137  A    between atoms: _382  and  _383
REMARK  138  A    between atoms: _382  and  _385
REMARK  139  A    between atoms: _385  and  _386
REMARK  140  A    between atoms: _391  and  _393
REMARK  141  A    between atoms: _393  and  _394
REMARK  142  A    between atoms: _393  and  _396
REMARK  143  A    between atoms: _396  and  _397
REMARK  144  A    between atoms: _397  and  _398
REMARK  145  A    between atoms: _398  and  _399
REMARK                            x       y       z     vdW  Elec       q    Type
REMARK                         _______ _______ _______ _____ _____    ______ ____
ROOT
ATOM      1  CB  ASN A   1      19.159  -7.126  10.371  0.00  0.00    +0.110 C 
ENDROOT
BRANCH   1   2
ATOM      2  CG  ASN A   1      17.702  -7.334  10.118  0.00  0.00    +0.221 C 
ATOM      3  OD1 ASN A   1      17.094  -8.241  10.687  0.00  0.00    -0.275 OA
ATOM      4  ND2 ASN A   1      17.104  -6.475   9.288  0.00  0.00    -0.329 N 
ATOM      5 HD21 ASN A   1      16.084  -6.557   9.100  0.00  0.00    +0.145 HD
ATOM      6 HD22 ASN A   1      17.658  -5.724   8.829  0.00  0.00    +0.145 HD
ENDBRANCH   1   2
BRANCH   1   7
ATOM      7  CA  ASN A   1      19.709  -8.029  11.455  0.00  0.00    +0.142 C 
BRANCH   7   8
ATOM      8  N   ASN A   1      19.375  -9.429  11.170  0.00  0.00    -0.239 NA
ATOM      9  H   ASN A   1      18.484  -9.661  10.687  0.00  0.00    +0.142 HD
ENDBRANCH   7   8
BRANCH   7  10
ATOM     10  C   ASN A   1      19.126  -7.610  12.855  0.00  0.00    +0.225 C 
ATOM     11  O   ASN A   1      18.455  -6.580  12.969  0.00  0.00    -0.287 OA
ENDBRANCH   7  10
ENDBRANCH   1   7
TORSDOF 4
REMARK  Name = ../refined-set-2016/3s78/3s78_pocket.pdb
REMARK  145 active torsions:
REMARK  status: ('A' for Active; 'I' for Inactive)
REMARK    1  A    between atoms: _1  and  _3
REMARK    2  A    between atoms: _3  and  _4
REMARK    3  A    between atoms: _3  and  _6
REMARK    4  A    between atoms: _6  and  _7
REMARK    5  A    between atoms: _17  and  _19
REMARK    6  A    between atoms: _19  and  _20
REMARK    7  A    between atoms: _19  and  _22
REMARK    8  A    between atoms: _22  and  _23
REMARK    9  A    between atoms: _28  and  _29
REMARK   10  A    between atoms: _31  and  _33
REMARK   11  A    between atoms: _33  and  _34
REMARK   12  A    between atoms: _33  and  _36
REMARK   13  A    between atoms: _36  and  _37
REMARK   14  A    between atoms: _40  and  _41
REMARK   15  A    between atoms: _46  and  _48
REMARK   16  A    between atoms: _48  and  _49
REMARK   17  A    between atoms: _48  and  _51
REMARK   18  A    between atoms: _51  and  _52
REMARK   19  A    between atoms: _57  and  _59
REMARK   20  A    between atoms: _59  and  _60
REMARK   21  A    between atoms: _63  and  _65
REMARK   22  A    between atoms: _65  and  _66
REMARK   23  A    between atoms: _65  and  _68
REMARK   24  A    between atoms: _68  and  _69
REMARK   25  A    between atoms: _74  and  _76
REMARK   26  A    between atoms: _76  and  _77
REMARK   27  A    between atoms: _76  and  _79
REMARK   28  A    between atoms: _79  and  _80
REMARK   29  A    between atoms: _83  and  _85
REMARK   30  A    between atoms: _85  and  _86
REMARK   31  A    between atoms: _85  and  _88
REMARK   32  A    between atoms: _88  and  _89
REMARK   33  A    between atoms: _89  and  _90
REMARK   34  A    between atoms: _95  and  _97
REMARK   35  A    between atoms: _97  and  _98
REMARK   36  A    between atoms: _97  and  _100
REMARK   37  A    between atoms: _100  and  _101
REMARK   38  A    between atoms: _107  and  _109
REMARK   39  A    between atoms: _120  and  _123
REMARK   40  A    between atoms: _123  and  _124
REMARK   41  A    between atoms: _132  and  _133
REMARK   42  A    between atoms: _141  and  _143
REMARK   43  A    between atoms: _143  and  _144
REMARK   44  A    between atoms: _143  and  _146
REMARK   45  A    between atoms: _146  and  _147
REMARK   46  A    between atoms: _147  and  _148
REMARK   47  A    between atoms: _151  and  _153
REMARK   48  A    between atoms: _153  and  _154
REMARK   49  A    between atoms: _153  and  _156
REMARK   50  A    between atoms: _156  and  _157
REMARK   51  A    between atoms: _162  and  _164
REMARK   52  A    between atoms: _164  and  _165
REMARK   53  A    between atoms: _164  and  _167
REMARK   54  A    between atoms: _167  and  _168
REMARK   55  A    between atoms: _168  and  _169
REMARK   56  A    between atoms: _172  and  _174
REMARK   57  A    between atoms: _174  and  _175
REMARK   58  A    between atoms: _174  and  _177
REMARK   59  A    between atoms: _177  and  _178
REMARK   60  A    between atoms: _181  and  _183
REMARK   61  A    between atoms: _183  and  _184
REMARK   62  A    between atoms: _183  and  _186
REMARK   63  A    between atoms: _186  and  _187
REMARK   64  A    between atoms: _188  and  ZN_408
REMARK   65  A    between atoms: _192  and  _194
REMARK   66  A    between atoms: _194  and  _195
REMARK   67  A    between atoms: _194  and  _197
REMARK   68  A    between atoms: _197  and  _198
REMARK   69  A    between atoms: _201  and  _203
REMARK   70  A    between atoms: _203  and  _204
REMARK   71  A    between atoms: _203  and  _206
REMARK   72  A    between atoms: _209  and  _211
REMARK   73  A    between atoms: _211  and  _212
REMARK   74  A    between atoms: _211  and  _214
REMARK   75  A    between atoms: _214  and  _215
REMARK   76  A    between atoms: _220  and  _222
REMARK   77  A    between atoms: _222  and  _223
REMARK   78  A    between atoms: _222  and  _225
REMARK   79  A    between atoms: _225  and  _226
REMARK   80  A    between atoms: _232  and  _234
REMARK   81  A    between atoms: _234  and  _235
REMARK   82  A    between atoms: _234  and  _237
REMARK   83  A    between atoms: _240  and  _242
REMARK   84  A    between atoms: _242  and  _243
REMARK   85  A    between atoms: _242  and  _245
REMARK   86  A    between atoms: _245  and  _246
REMARK   87  A    between atoms: _249  and  _251
REMARK   88  A    between atoms: _251  and  _252
REMARK   89  A    between atoms: _255  and  _257
REMARK   90  A    between atoms: _257  and  _258
REMARK   91  A    between atoms: _257  and  _260
REMARK   92  A    between atoms: _263  and  _265
REMARK   93  A    between atoms: _265  and  _266
REMARK   94  A    between atoms: _265  and  _268
REMARK   95  A    between atoms: _268  and  _269
REMARK   96  A    between atoms: _272  and  _274
REMARK   97  A    between atoms: _274  and  _275
REMARK   98  A    between atoms: _277  and  _279
REMARK   99  A    between atoms: _279  and  _280
REMARK  100  A    between atoms: _282  and  _284
REMARK  101  A    between atoms: _284  and  _285
REMARK  102  A    between atoms: _284  and  _287
REMARK  103  A    between atoms: _287  and  _288
REMARK  104  A    between atoms: _290  and  _292
REMARK  105  A    between atoms: _292  and  _293
REMARK  106  A    between atoms: _292  and  _295
REMARK  107  A    between atoms: _295  and  _296
REMARK  108  A    between atoms: _299  and  _301
REMARK  109  A    between atoms: _301  and  _302
REMARK  110  A    between atoms: _301  and  _304
REMARK  111  A    between atoms: _304  and  _305
REMARK  112  A    between atoms: _308  and  _310
REMARK  113  A    between atoms: _310  and  _311
REMARK  114  A    between atoms: _310  and  _313
REMARK  115  A    between atoms: _313  and  _314
REMARK  116  A    between atoms: _318  and  _319
REMARK  117  A    between atoms: _325  and  _326
REMARK  118  A    between atoms: _331  and  _333
REMARK  119  A    between atoms: _333  and  _334
REMARK  120  A    between atoms: _333  and  _336
REMARK  121  A    between atoms: _336  and  _337
REMARK  122  A    between atoms: _340  and  _342
REMARK  123  A    between atoms: _342  and  _343
REMARK  124  A    between atoms: _342  and  _345
REMARK  125  A    between atoms: _345  and  _346
REMARK  126  A    between atoms: _349  and  _351
REMARK  127  A    between atoms: _351  and  _352
REMARK  128  A    between atoms: _351  and  _354
REMARK  129  A    between atoms: _356  and  _358
REMARK  130  A    between atoms: _358  and  _359
REMARK  131  A    between atoms: _358  and  _361
REMARK  132  A    between atoms: _364  and  _366
REMARK  133  A    between atoms: _366  and  _367
REMARK  134  A    between atoms: _366  and  _369
REMARK  135  A    between atoms: _369  and  _370
REMARK  136  A    between atoms: _380  and  _382
REMARK  137  A    between atoms: _382  and  _383
REMARK  138  A    between atoms: _382  and  _385
REMARK  139  A    between atoms: _385  and  _386
REMARK  140  A    between atoms: _391  and  _393
REMARK  141  A    between atoms: _393  and  _394
REMARK  142  A    between atoms: _393  and  _396
REMARK  143  A    between atoms: _396  and  _397
REMARK  144  A    between atoms: _397  and  _398
REMARK  145  A    between atoms: _398  and  _399
REMARK                            x       y       z     vdW  Elec       q    Type
REMARK                         _______ _______ _______ _____ _____    ______ ____
ROOT
ATOM      1  NE  ARG A   1      23.359  -3.681  21.212  0.00  0.00    -0.265 N 
ATOM      2  CZ  ARG A   1      23.484  -2.602  21.985  0.00  0.00    +0.342 C 
ATOM      3  NH2 ARG A   1      24.658  -2.340  22.536  0.00  0.00    -0.292 N 
ATOM      4 HH21 ARG A   1      24.773  -1.502  23.142  0.00  0.00    +0.255 HD
ATOM      5 HH22 ARG A   1      25.466  -2.972  22.363  0.00  0.00    +0.255 HD
ATOM      6  NH1 ARG A   1      22.439  -1.753  22.197  0.00  0.00    -0.292 N 
ATOM      7 HH11 ARG A   1      22.562  -0.918  22.804  0.00  0.00    +0.255 HD
ATOM      8 HH12 ARG A   1      21.518  -1.940  21.751  0.00  0.00    +0.255 HD
ATOM      9  HE  ARG A   1      24.180  -4.309  21.096  0.00  0.00    +0.259 HD
ENDROOT
BRANCH   1  10
ATOM     10  CD  ARG A   1      22.103  -4.022  20.513  0.00  0.00    +0.174 C 
BRANCH  10  11
ATOM     11  CG  ARG A   1      22.179  -5.327  19.772  0.00  0.00    +0.045 C 
BRANCH  11  12
ATOM     12  CB  ARG A   1      21.032  -5.562  18.818  0.00  0.00    +0.029 C 
BRANCH  12  13
ATOM     13  CA  ARG A   1      20.975  -7.015  18.254  0.00  0.00    +0.133 C 
BRANCH  13  14
ATOM     14  N   ARG A   1      20.046  -7.069  17.096  0.00  0.00    -0.239 NA
ATOM     15  H   ARG A   1      19.304  -6.344  17.022  0.00  0.00    +0.142 HD
ENDBRANCH  13  14
BRANCH  13  16
ATOM     16  C   ARG A   1      20.524  -7.947  19.369  0.00  0.00    +0.224 C 
ATOM     17  O   ARG A   1      19.339  -7.913  19.770  0.00  0.00    -0.287 OA
ENDBRANCH  13  16
ENDBRANCH  12  13
ENDBRANCH  11  12
ENDBRANCH  10  11
ENDBRANCH   1  10
TORSDOF 6
REMARK  Name = ../refined-set-2016/3s78/3s78_pocket.pdb
REMARK  145 active torsions:
REMARK  status: ('A' for Active; 'I' for Inactive)
REMARK    1  A    between atoms: _1  and  _3
REMARK    2  A    between atoms: _3  and  _4
REMARK    3  A    between atoms: _3  and  _6
REMARK    4  A    between atoms: _6  and  _7
REMARK    5  A    between atoms: _17  and  _19
REMARK    6  A    between atoms: _19  and  _20
REMARK    7  A    between atoms: _19  and  _22
REMARK    8  A    between atoms: _22  and  _23
REMARK    9  A    between atoms: _28  and  _29
REMARK   10  A    between atoms: _31  and  _33
REMARK   11  A    between atoms: _33  and  _34
REMARK   12  A    between atoms: _33  and  _36
REMARK   13  A    between atoms: _36  and  _37
REMARK   14  A    between atoms: _40  and  _41
REMARK   15  A    between atoms: _46  and  _48
REMARK   16  A    between atoms: _48  and  _49
REMARK   17  A    between atoms: _48  and  _51
REMARK   18  A    between atoms: _51  and  _52
REMARK   19  A    between atoms: _57  and  _59
REMARK   20  A    between atoms: _59  and  _60
REMARK   21  A    between atoms: _63  and  _65
REMARK   22  A    between atoms: _65  and  _66
REMARK   23  A    between atoms: _65  and  _68
REMARK   24  A    between atoms: _68  and  _69
REMARK   25  A    between atoms: _74  and  _76
REMARK   26  A    between atoms: _76  and  _77
REMARK   27  A    between atoms: _76  and  _79
REMARK   28  A    between atoms: _79  and  _80
REMARK   29  A    between atoms: _83  and  _85
REMARK   30  A    between atoms: _85  and  _86
REMARK   31  A    between atoms: _85  and  _88
REMARK   32  A    between atoms: _88  and  _89
REMARK   33  A    between atoms: _89  and  _90
REMARK   34  A    between atoms: _95  and  _97
REMARK   35  A    between atoms: _97  and  _98
REMARK   36  A    between atoms: _97  and  _100
REMARK   37  A    between atoms: _100  and  _101
REMARK   38  A    between atoms: _107  and  _109
REMARK   39  A    between atoms: _120  and  _123
REMARK   40  A    between atoms: _123  and  _124
REMARK   41  A    between atoms: _132  and  _133
REMARK   42  A    between atoms: _141  and  _143
REMARK   43  A    between atoms: _143  and  _144
REMARK   44  A    between atoms: _143  and  _146
REMARK   45  A    between atoms: _146  and  _147
REMARK   46  A    between atoms: _147  and  _148
REMARK   47  A    between atoms: _151  and  _153
REMARK   48  A    between atoms: _153  and  _154
REMARK   49  A    between atoms: _153  and  _156
REMARK   50  A    between atoms: _156  and  _157
REMARK   51  A    between atoms: _162  and  _164
REMARK   52  A    between atoms: _164  and  _165
REMARK   53  A    between atoms: _164  and  _167
REMARK   54  A    between atoms: _167  and  _168
REMARK   55  A    between atoms: _168  and  _169
REMARK   56  A    between atoms: _172  and  _174
REMARK   57  A    between atoms: _174  and  _175
REMARK   58  A    between atoms: _174  and  _177
REMARK   59  A    between atoms: _177  and  _178
REMARK   60  A    between atoms: _181  and  _183
REMARK   61  A    between atoms: _183  and  _184
REMARK   62  A    between atoms: _183  and  _186
REMARK   63  A    between atoms: _186  and  _187
REMARK   64  A    between atoms: _188  and  ZN_408
REMARK   65  A    between atoms: _192  and  _194
REMARK   66  A    between atoms: _194  and  _195
REMARK   67  A    between atoms: _194  and  _197
REMARK   68  A    between atoms: _197  and  _198
REMARK   69  A    between atoms: _201  and  _203
REMARK   70  A    between atoms: _203  and  _204
REMARK   71  A    between atoms: _203  and  _206
REMARK   72  A    between atoms: _209  and  _211
REMARK   73  A    between atoms: _211  and  _212
REMARK   74  A    between atoms: _211  and  _214
REMARK   75  A    between atoms: _214  and  _215
REMARK   76  A    between atoms: _220  and  _222
REMARK   77  A    between atoms: _222  and  _223
REMARK   78  A    between atoms: _222  and  _225
REMARK   79  A    between atoms: _225  and  _226
REMARK   80  A    between atoms: _232  and  _234
REMARK   81  A    between atoms: _234  and  _235
REMARK   82  A    between atoms: _234  and  _237
REMARK   83  A    between atoms: _240  and  _242
REMARK   84  A    between atoms: _242  and  _243
REMARK   85  A    between atoms: _242  and  _245
REMARK   86  A    between atoms: _245  and  _246
REMARK   87  A    between atoms: _249  and  _251
REMARK   88  A    between atoms: _251  and  _252
REMARK   89  A    between atoms: _255  and  _257
REMARK   90  A    between atoms: _257  and  _258
REMARK   91  A    between atoms: _257  and  _260
REMARK   92  A    between atoms: _263  and  _265
REMARK   93  A    between atoms: _265  and  _266
REMARK   94  A    between atoms: _265  and  _268
REMARK   95  A    between atoms: _268  and  _269
REMARK   96  A    between atoms: _272  and  _274
REMARK   97  A    between atoms: _274  and  _275
REMARK   98  A    between atoms: _277  and  _279
REMARK   99  A    between atoms: _279  and  _280
REMARK  100  A    between atoms: _282  and  _284
REMARK  101  A    between atoms: _284  and  _285
REMARK  102  A    between atoms: _284  and  _287
REMARK  103  A    between atoms: _287  and  _288
REMARK  104  A    between atoms: _290  and  _292
REMARK  105  A    between atoms: _292  and  _293
REMARK  106  A    between atoms: _292  and  _295
REMARK  107  A    between atoms: _295  and  _296
REMARK  108  A    between atoms: _299  and  _301
REMARK  109  A    between atoms: _301  and  _302
REMARK  110  A    between atoms: _301  and  _304
REMARK  111  A    between atoms: _304  and  _305
REMARK  112  A    between atoms: _308  and  _310
REMARK  113  A    between atoms: _310  and  _311
REMARK  114  A    between atoms: _310  and  _313
REMARK  115  A    between atoms: _313  and  _314
REMARK  116  A    between atoms: _318  and  _319
REMARK  117  A    between atoms: _325  and  _326
REMARK  118  A    between atoms: _331  and  _333
REMARK  119  A    between atoms: _333  and  _334
REMARK  120  A    between atoms: _333  and  _336
REMARK  121  A    between atoms: _336  and  _337
REMARK  122  A    between atoms: _340  and  _342
REMARK  123  A    between atoms: _342  and  _343
REMARK  124  A    between atoms: _342  and  _345
REMARK  125  A    between atoms: _345  and  _346
REMARK  126  A    between atoms: _349  and  _351
REMARK  127  A    between atoms: _351  and  _352
REMARK  128  A    between atoms: _351  and  _354
REMARK  129  A    between atoms: _356  and  _358
REMARK  130  A    between atoms: _358  and  _359
REMARK  131  A    between atoms: _358  and  _361
REMARK  132  A    between atoms: _364  and  _366
REMARK  133  A    between atoms: _366  and  _367
REMARK  134  A    between atoms: _366  and  _369
REMARK  135  A    between atoms: _369  and  _370
REMARK  136  A    between atoms: _380  and  _382
REMARK  137  A    between atoms: _382  and  _383
REMARK  138  A    between atoms: _382  and  _385
REMARK  139  A    between atoms: _385  and  _386
REMARK  140  A    between atoms: _391  and  _393
REMARK  141  A    between atoms: _393  and  _394
REMARK  142  A    between atoms: _393  and  _396
REMARK  143  A    between atoms: _396  and  _397
REMARK  144  A    between atoms: _397  and  _398
REMARK  145  A    between atoms: _398  and  _399
REMARK                            x       y       z     vdW  Elec       q    Type
REMARK                         _______ _______ _______ _____ _____    ______ ____
ROOT
ATOM      1  O   HOH     1      19.794  -3.899  15.633  0.00  0.00    +0.000 OA
ENDROOT
TORSDOF 0
REMARK  Name = ../refined-set-2016/3s78/3s78_pocket.pdb
REMARK  145 active torsions:
REMARK  status: ('A' for Active; 'I' for Inactive)
REMARK    1  A    between atoms: _1  and  _3
REMARK    2  A    between atoms: _3  and  _4
REMARK    3  A    between atoms: _3  and  _6
REMARK    4  A    between atoms: _6  and  _7
REMARK    5  A    between atoms: _17  and  _19
REMARK    6  A    between atoms: _19  and  _20
REMARK    7  A    between atoms: _19  and  _22
REMARK    8  A    between atoms: _22  and  _23
REMARK    9  A    between atoms: _28  and  _29
REMARK   10  A    between atoms: _31  and  _33
REMARK   11  A    between atoms: _33  and  _34
REMARK   12  A    between atoms: _33  and  _36
REMARK   13  A    between atoms: _36  and  _37
REMARK   14  A    between atoms: _40  and  _41
REMARK   15  A    between atoms: _46  and  _48
REMARK   16  A    between atoms: _48  and  _49
REMARK   17  A    between atoms: _48  and  _51
REMARK   18  A    between atoms: _51  and  _52
REMARK   19  A    between atoms: _57  and  _59
REMARK   20  A    between atoms: _59  and  _60
REMARK   21  A    between atoms: _63  and  _65
REMARK   22  A    between atoms: _65  and  _66
REMARK   23  A    between atoms: _65  and  _68
REMARK   24  A    between atoms: _68  and  _69
REMARK   25  A    between atoms: _74  and  _76
REMARK   26  A    between atoms: _76  and  _77
REMARK   27  A    between atoms: _76  and  _79
REMARK   28  A    between atoms: _79  and  _80
REMARK   29  A    between atoms: _83  and  _85
REMARK   30  A    between atoms: _85  and  _86
REMARK   31  A    between atoms: _85  and  _88
REMARK   32  A    between atoms: _88  and  _89
REMARK   33  A    between atoms: _89  and  _90
REMARK   34  A    between atoms: _95  and  _97
REMARK   35  A    between atoms: _97  and  _98
REMARK   36  A    between atoms: _97  and  _100
REMARK   37  A    between atoms: _100  and  _101
REMARK   38  A    between atoms: _107  and  _109
REMARK   39  A    between atoms: _120  and  _123
REMARK   40  A    between atoms: _123  and  _124
REMARK   41  A    between atoms: _132  and  _133
REMARK   42  A    between atoms: _141  and  _143
REMARK   43  A    between atoms: _143  and  _144
REMARK   44  A    between atoms: _143  and  _146
REMARK   45  A    between atoms: _146  and  _147
REMARK   46  A    between atoms: _147  and  _148
REMARK   47  A    between atoms: _151  and  _153
REMARK   48  A    between atoms: _153  and  _154
REMARK   49  A    between atoms: _153  and  _156
REMARK   50  A    between atoms: _156  and  _157
REMARK   51  A    between atoms: _162  and  _164
REMARK   52  A    between atoms: _164  and  _165
REMARK   53  A    between atoms: _164  and  _167
REMARK   54  A    between atoms: _167  and  _168
REMARK   55  A    between atoms: _168  and  _169
REMARK   56  A    between atoms: _172  and  _174
REMARK   57  A    between atoms: _174  and  _175
REMARK   58  A    between atoms: _174  and  _177
REMARK   59  A    between atoms: _177  and  _178
REMARK   60  A    between atoms: _181  and  _183
REMARK   61  A    between atoms: _183  and  _184
REMARK   62  A    between atoms: _183  and  _186
REMARK   63  A    between atoms: _186  and  _187
REMARK   64  A    between atoms: _188  and  ZN_408
REMARK   65  A    between atoms: _192  and  _194
REMARK   66  A    between atoms: _194  and  _195
REMARK   67  A    between atoms: _194  and  _197
REMARK   68  A    between atoms: _197  and  _198
REMARK   69  A    between atoms: _201  and  _203
REMARK   70  A    between atoms: _203  and  _204
REMARK   71  A    between atoms: _203  and  _206
REMARK   72  A    between atoms: _209  and  _211
REMARK   73  A    between atoms: _211  and  _212
REMARK   74  A    between atoms: _211  and  _214
REMARK   75  A    between atoms: _214  and  _215
REMARK   76  A    between atoms: _220  and  _222
REMARK   77  A    between atoms: _222  and  _223
REMARK   78  A    between atoms: _222  and  _225
REMARK   79  A    between atoms: _225  and  _226
REMARK   80  A    between atoms: _232  and  _234
REMARK   81  A    between atoms: _234  and  _235
REMARK   82  A    between atoms: _234  and  _237
REMARK   83  A    between atoms: _240  and  _242
REMARK   84  A    between atoms: _242  and  _243
REMARK   85  A    between atoms: _242  and  _245
REMARK   86  A    between atoms: _245  and  _246
REMARK   87  A    between atoms: _249  and  _251
REMARK   88  A    between atoms: _251  and  _252
REMARK   89  A    between atoms: _255  and  _257
REMARK   90  A    between atoms: _257  and  _258
REMARK   91  A    between atoms: _257  and  _260
REMARK   92  A    between atoms: _263  and  _265
REMARK   93  A    between atoms: _265  and  _266
REMARK   94  A    between atoms: _265  and  _268
REMARK   95  A    between atoms: _268  and  _269
REMARK   96  A    between atoms: _272  and  _274
REMARK   97  A    between atoms: _274  and  _275
REMARK   98  A    between atoms: _277  and  _279
REMARK   99  A    between atoms: _279  and  _280
REMARK  100  A    between atoms: _282  and  _284
REMARK  101  A    between atoms: _284  and  _285
REMARK  102  A    between atoms: _284  and  _287
REMARK  103  A    between atoms: _287  and  _288
REMARK  104  A    between atoms: _290  and  _292
REMARK  105  A    between atoms: _292  and  _293
REMARK  106  A    between atoms: _292  and  _295
REMARK  107  A    between atoms: _295  and  _296
REMARK  108  A    between atoms: _299  and  _301
REMARK  109  A    between atoms: _301  and  _302
REMARK  110  A    between atoms: _301  and  _304
REMARK  111  A    between atoms: _304  and  _305
REMARK  112  A    between atoms: _308  and  _310
REMARK  113  A    between atoms: _310  and  _311
REMARK  114  A    between atoms: _310  and  _313
REMARK  115  A    between atoms: _313  and  _314
REMARK  116  A    between atoms: _318  and  _319
REMARK  117  A    between atoms: _325  and  _326
REMARK  118  A    between atoms: _331  and  _333
REMARK  119  A    between atoms: _333  and  _334
REMARK  120  A    between atoms: _333  and  _336
REMARK  121  A    between atoms: _336  and  _337
REMARK  122  A    between atoms: _340  and  _342
REMARK  123  A    between atoms: _342  and  _343
REMARK  124  A    between atoms: _342  and  _345
REMARK  125  A    between atoms: _345  and  _346
REMARK  126  A    between atoms: _349  and  _351
REMARK  127  A    between atoms: _351  and  _352
REMARK  128  A    between atoms: _351  and  _354
REMARK  129  A    between atoms: _356  and  _358
REMARK  130  A    between atoms: _358  and  _359
REMARK  131  A    between atoms: _358  and  _361
REMARK  132  A    between atoms: _364  and  _366
REMARK  133  A    between atoms: _366  and  _367
REMARK  134  A    between atoms: _366  and  _369
REMARK  135  A    between atoms: _369  and  _370
REMARK  136  A    between atoms: _380  and  _382
REMARK  137  A    between atoms: _382  and  _383
REMARK  138  A    between atoms: _382  and  _385
REMARK  139  A    between atoms: _385  and  _386
REMARK  140  A    between atoms: _391  and  _393
REMARK  141  A    between atoms: _393  and  _394
REMARK  142  A    between atoms: _393  and  _396
REMARK  143  A    between atoms: _396  and  _397
REMARK  144  A    between atoms: _397  and  _398
REMARK  145  A    between atoms: _398  and  _399
REMARK                            x       y       z     vdW  Elec       q    Type
REMARK                         _______ _______ _______ _____ _____    ______ ____
ROOT
ATOM      1  O   HOH     1      17.058   0.411  13.680  0.00  0.00    +0.000 OA
ENDROOT
TORSDOF 0
REMARK  Name = ../refined-set-2016/3s78/3s78_pocket.pdb
REMARK  145 active torsions:
REMARK  status: ('A' for Active; 'I' for Inactive)
REMARK    1  A    between atoms: _1  and  _3
REMARK    2  A    between atoms: _3  and  _4
REMARK    3  A    between atoms: _3  and  _6
REMARK    4  A    between atoms: _6  and  _7
REMARK    5  A    between atoms: _17  and  _19
REMARK    6  A    between atoms: _19  and  _20
REMARK    7  A    between atoms: _19  and  _22
REMARK    8  A    between atoms: _22  and  _23
REMARK    9  A    between atoms: _28  and  _29
REMARK   10  A    between atoms: _31  and  _33
REMARK   11  A    between atoms: _33  and  _34
REMARK   12  A    between atoms: _33  and  _36
REMARK   13  A    between atoms: _36  and  _37
REMARK   14  A    between atoms: _40  and  _41
REMARK   15  A    between atoms: _46  and  _48
REMARK   16  A    between atoms: _48  and  _49
REMARK   17  A    between atoms: _48  and  _51
REMARK   18  A    between atoms: _51  and  _52
REMARK   19  A    between atoms: _57  and  _59
REMARK   20  A    between atoms: _59  and  _60
REMARK   21  A    between atoms: _63  and  _65
REMARK   22  A    between atoms: _65  and  _66
REMARK   23  A    between atoms: _65  and  _68
REMARK   24  A    between atoms: _68  and  _69
REMARK   25  A    between atoms: _74  and  _76
REMARK   26  A    between atoms: _76  and  _77
REMARK   27  A    between atoms: _76  and  _79
REMARK   28  A    between atoms: _79  and  _80
REMARK   29  A    between atoms: _83  and  _85
REMARK   30  A    between atoms: _85  and  _86
REMARK   31  A    between atoms: _85  and  _88
REMARK   32  A    between atoms: _88  and  _89
REMARK   33  A    between atoms: _89  and  _90
REMARK   34  A    between atoms: _95  and  _97
REMARK   35  A    between atoms: _97  and  _98
REMARK   36  A    between atoms: _97  and  _100
REMARK   37  A    between atoms: _100  and  _101
REMARK   38  A    between atoms: _107  and  _109
REMARK   39  A    between atoms: _120  and  _123
REMARK   40  A    between atoms: _123  and  _124
REMARK   41  A    between atoms: _132  and  _133
REMARK   42  A    between atoms: _141  and  _143
REMARK   43  A    between atoms: _143  and  _144
REMARK   44  A    between atoms: _143  and  _146
REMARK   45  A    between atoms: _146  and  _147
REMARK   46  A    between atoms: _147  and  _148
REMARK   47  A    between atoms: _151  and  _153
REMARK   48  A    between atoms: _153  and  _154
REMARK   49  A    between atoms: _153  and  _156
REMARK   50  A    between atoms: _156  and  _157
REMARK   51  A    between atoms: _162  and  _164
REMARK   52  A    between atoms: _164  and  _165
REMARK   53  A    between atoms: _164  and  _167
REMARK   54  A    between atoms: _167  and  _168
REMARK   55  A    between atoms: _168  and  _169
REMARK   56  A    between atoms: _172  and  _174
REMARK   57  A    between atoms: _174  and  _175
REMARK   58  A    between atoms: _174  and  _177
REMARK   59  A    between atoms: _177  and  _178
REMARK   60  A    between atoms: _181  and  _183
REMARK   61  A    between atoms: _183  and  _184
REMARK   62  A    between atoms: _183  and  _186
REMARK   63  A    between atoms: _186  and  _187
REMARK   64  A    between atoms: _188  and  ZN_408
REMARK   65  A    between atoms: _192  and  _194
REMARK   66  A    between atoms: _194  and  _195
REMARK   67  A    between atoms: _194  and  _197
REMARK   68  A    between atoms: _197  and  _198
REMARK   69  A    between atoms: _201  and  _203
REMARK   70  A    between atoms: _203  and  _204
REMARK   71  A    between atoms: _203  and  _206
REMARK   72  A    between atoms: _209  and  _211
REMARK   73  A    between atoms: _211  and  _212
REMARK   74  A    between atoms: _211  and  _214
REMARK   75  A    between atoms: _214  and  _215
REMARK   76  A    between atoms: _220  and  _222
REMARK   77  A    between atoms: _222  and  _223
REMARK   78  A    between atoms: _222  and  _225
REMARK   79  A    between atoms: _225  and  _226
REMARK   80  A    between atoms: _232  and  _234
REMARK   81  A    between atoms: _234  and  _235
REMARK   82  A    between atoms: _234  and  _237
REMARK   83  A    between atoms: _240  and  _242
REMARK   84  A    between atoms: _242  and  _243
REMARK   85  A    between atoms: _242  and  _245
REMARK   86  A    between atoms: _245  and  _246
REMARK   87  A    between atoms: _249  and  _251
REMARK   88  A    between atoms: _251  and  _252
REMARK   89  A    between atoms: _255  and  _257
REMARK   90  A    between atoms: _257  and  _258
REMARK   91  A    between atoms: _257  and  _260
REMARK   92  A    between atoms: _263  and  _265
REMARK   93  A    between atoms: _265  and  _266
REMARK   94  A    between atoms: _265  and  _268
REMARK   95  A    between atoms: _268  and  _269
REMARK   96  A    between atoms: _272  and  _274
REMARK   97  A    between atoms: _274  and  _275
REMARK   98  A    between atoms: _277  and  _279
REMARK   99  A    between atoms: _279  and  _280
REMARK  100  A    between atoms: _282  and  _284
REMARK  101  A    between atoms: _284  and  _285
REMARK  102  A    between atoms: _284  and  _287
REMARK  103  A    between atoms: _287  and  _288
REMARK  104  A    between atoms: _290  and  _292
REMARK  105  A    between atoms: _292  and  _293
REMARK  106  A    between atoms: _292  and  _295
REMARK  107  A    between atoms: _295  and  _296
REMARK  108  A    between atoms: _299  and  _301
REMARK  109  A    between atoms: _301  and  _302
REMARK  110  A    between atoms: _301  and  _304
REMARK  111  A    between atoms: _304  and  _305
REMARK  112  A    between atoms: _308  and  _310
REMARK  113  A    between atoms: _310  and  _311
REMARK  114  A    between atoms: _310  and  _313
REMARK  115  A    between atoms: _313  and  _314
REMARK  116  A    between atoms: _318  and  _319
REMARK  117  A    between atoms: _325  and  _326
REMARK  118  A    between atoms: _331  and  _333
REMARK  119  A    between atoms: _333  and  _334
REMARK  120  A    between atoms: _333  and  _336
REMARK  121  A    between atoms: _336  and  _337
REMARK  122  A    between atoms: _340  and  _342
REMARK  123  A    between atoms: _342  and  _343
REMARK  124  A    between atoms: _342  and  _345
REMARK  125  A    between atoms: _345  and  _346
REMARK  126  A    between atoms: _349  and  _351
REMARK  127  A    between atoms: _351  and  _352
REMARK  128  A    between atoms: _351  and  _354
REMARK  129  A    between atoms: _356  and  _358
REMARK  130  A    between atoms: _358  and  _359
REMARK  131  A    between atoms: _358  and  _361
REMARK  132  A    between atoms: _364  and  _366
REMARK  133  A    between atoms: _366  and  _367
REMARK  134  A    between atoms: _366  and  _369
REMARK  135  A    between atoms: _369  and  _370
REMARK  136  A    between atoms: _380  and  _382
REMARK  137  A    between atoms: _382  and  _383
REMARK  138  A    between atoms: _382  and  _385
REMARK  139  A    between atoms: _385  and  _386
REMARK  140  A    between atoms: _391  and  _393
REMARK  141  A    between atoms: _393  and  _394
REMARK  142  A    between atoms: _393  and  _396
REMARK  143  A    between atoms: _396  and  _397
REMARK  144  A    between atoms: _397  and  _398
REMARK  145  A    between atoms: _398  and  _399
REMARK                            x       y       z     vdW  Elec       q    Type
REMARK                         _______ _______ _______ _____ _____    ______ ____
ROOT
ATOM      1  O   HOH     1      17.655  -0.640  11.325  0.00  0.00    +0.000 OA
ENDROOT
TORSDOF 0
REMARK  Name = ../refined-set-2016/3s78/3s78_pocket.pdb
REMARK  145 active torsions:
REMARK  status: ('A' for Active; 'I' for Inactive)
REMARK    1  A    between atoms: _1  and  _3
REMARK    2  A    between atoms: _3  and  _4
REMARK    3  A    between atoms: _3  and  _6
REMARK    4  A    between atoms: _6  and  _7
REMARK    5  A    between atoms: _17  and  _19
REMARK    6  A    between atoms: _19  and  _20
REMARK    7  A    between atoms: _19  and  _22
REMARK    8  A    between atoms: _22  and  _23
REMARK    9  A    between atoms: _28  and  _29
REMARK   10  A    between atoms: _31  and  _33
REMARK   11  A    between atoms: _33  and  _34
REMARK   12  A    between atoms: _33  and  _36
REMARK   13  A    between atoms: _36  and  _37
REMARK   14  A    between atoms: _40  and  _41
REMARK   15  A    between atoms: _46  and  _48
REMARK   16  A    between atoms: _48  and  _49
REMARK   17  A    between atoms: _48  and  _51
REMARK   18  A    between atoms: _51  and  _52
REMARK   19  A    between atoms: _57  and  _59
REMARK   20  A    between atoms: _59  and  _60
REMARK   21  A    between atoms: _63  and  _65
REMARK   22  A    between atoms: _65  and  _66
REMARK   23  A    between atoms: _65  and  _68
REMARK   24  A    between atoms: _68  and  _69
REMARK   25  A    between atoms: _74  and  _76
REMARK   26  A    between atoms: _76  and  _77
REMARK   27  A    between atoms: _76  and  _79
REMARK   28  A    between atoms: _79  and  _80
REMARK   29  A    between atoms: _83  and  _85
REMARK   30  A    between atoms: _85  and  _86
REMARK   31  A    between atoms: _85  and  _88
REMARK   32  A    between atoms: _88  and  _89
REMARK   33  A    between atoms: _89  and  _90
REMARK   34  A    between atoms: _95  and  _97
REMARK   35  A    between atoms: _97  and  _98
REMARK   36  A    between atoms: _97  and  _100
REMARK   37  A    between atoms: _100  and  _101
REMARK   38  A    between atoms: _107  and  _109
REMARK   39  A    between atoms: _120  and  _123
REMARK   40  A    between atoms: _123  and  _124
REMARK   41  A    between atoms: _132  and  _133
REMARK   42  A    between atoms: _141  and  _143
REMARK   43  A    between atoms: _143  and  _144
REMARK   44  A    between atoms: _143  and  _146
REMARK   45  A    between atoms: _146  and  _147
REMARK   46  A    between atoms: _147  and  _148
REMARK   47  A    between atoms: _151  and  _153
REMARK   48  A    between atoms: _153  and  _154
REMARK   49  A    between atoms: _153  and  _156
REMARK   50  A    between atoms: _156  and  _157
REMARK   51  A    between atoms: _162  and  _164
REMARK   52  A    between atoms: _164  and  _165
REMARK   53  A    between atoms: _164  and  _167
REMARK   54  A    between atoms: _167  and  _168
REMARK   55  A    between atoms: _168  and  _169
REMARK   56  A    between atoms: _172  and  _174
REMARK   57  A    between atoms: _174  and  _175
REMARK   58  A    between atoms: _174  and  _177
REMARK   59  A    between atoms: _177  and  _178
REMARK   60  A    between atoms: _181  and  _183
REMARK   61  A    between atoms: _183  and  _184
REMARK   62  A    between atoms: _183  and  _186
REMARK   63  A    between atoms: _186  and  _187
REMARK   64  A    between atoms: _188  and  ZN_408
REMARK   65  A    between atoms: _192  and  _194
REMARK   66  A    between atoms: _194  and  _195
REMARK   67  A    between atoms: _194  and  _197
REMARK   68  A    between atoms: _197  and  _198
REMARK   69  A    between atoms: _201  and  _203
REMARK   70  A    between atoms: _203  and  _204
REMARK   71  A    between atoms: _203  and  _206
REMARK   72  A    between atoms: _209  and  _211
REMARK   73  A    between atoms: _211  and  _212
REMARK   74  A    between atoms: _211  and  _214
REMARK   75  A    between atoms: _214  and  _215
REMARK   76  A    between atoms: _220  and  _222
REMARK   77  A    between atoms: _222  and  _223
REMARK   78  A    between atoms: _222  and  _225
REMARK   79  A    between atoms: _225  and  _226
REMARK   80  A    between atoms: _232  and  _234
REMARK   81  A    between atoms: _234  and  _235
REMARK   82  A    between atoms: _234  and  _237
REMARK   83  A    between atoms: _240  and  _242
REMARK   84  A    between atoms: _242  and  _243
REMARK   85  A    between atoms: _242  and  _245
REMARK   86  A    between atoms: _245  and  _246
REMARK   87  A    between atoms: _249  and  _251
REMARK   88  A    between atoms: _251  and  _252
REMARK   89  A    between atoms: _255  and  _257
REMARK   90  A    between atoms: _257  and  _258
REMARK   91  A    between atoms: _257  and  _260
REMARK   92  A    between atoms: _263  and  _265
REMARK   93  A    between atoms: _265  and  _266
REMARK   94  A    between atoms: _265  and  _268
REMARK   95  A    between atoms: _268  and  _269
REMARK   96  A    between atoms: _272  and  _274
REMARK   97  A    between atoms: _274  and  _275
REMARK   98  A    between atoms: _277  and  _279
REMARK   99  A    between atoms: _279  and  _280
REMARK  100  A    between atoms: _282  and  _284
REMARK  101  A    between atoms: _284  and  _285
REMARK  102  A    between atoms: _284  and  _287
REMARK  103  A    between atoms: _287  and  _288
REMARK  104  A    between atoms: _290  and  _292
REMARK  105  A    between atoms: _292  and  _293
REMARK  106  A    between atoms: _292  and  _295
REMARK  107  A    between atoms: _295  and  _296
REMARK  108  A    between atoms: _299  and  _301
REMARK  109  A    between atoms: _301  and  _302
REMARK  110  A    between atoms: _301  and  _304
REMARK  111  A    between atoms: _304  and  _305
REMARK  112  A    between atoms: _308  and  _310
REMARK  113  A    between atoms: _310  and  _311
REMARK  114  A    between atoms: _310  and  _313
REMARK  115  A    between atoms: _313  and  _314
REMARK  116  A    between atoms: _318  and  _319
REMARK  117  A    between atoms: _325  and  _326
REMARK  118  A    between atoms: _331  and  _333
REMARK  119  A    between atoms: _333  and  _334
REMARK  120  A    between atoms: _333  and  _336
REMARK  121  A    between atoms: _336  and  _337
REMARK  122  A    between atoms: _340  and  _342
REMARK  123  A    between atoms: _342  and  _343
REMARK  124  A    between atoms: _342  and  _345
REMARK  125  A    between atoms: _345  and  _346
REMARK  126  A    between atoms: _349  and  _351
REMARK  127  A    between atoms: _351  and  _352
REMARK  128  A    between atoms: _351  and  _354
REMARK  129  A    between atoms: _356  and  _358
REMARK  130  A    between atoms: _358  and  _359
REMARK  131  A    between atoms: _358  and  _361
REMARK  132  A    between atoms: _364  and  _366
REMARK  133  A    between atoms: _366  and  _367
REMARK  134  A    between atoms: _366  and  _369
REMARK  135  A    between atoms: _369  and  _370
REMARK  136  A    between atoms: _380  and  _382
REMARK  137  A    between atoms: _382  and  _383
REMARK  138  A    between atoms: _382  and  _385
REMARK  139  A    between atoms: _385  and  _386
REMARK  140  A    between atoms: _391  and  _393
REMARK  141  A    between atoms: _393  and  _394
REMARK  142  A    between atoms: _393  and  _396
REMARK  143  A    between atoms: _396  and  _397
REMARK  144  A    between atoms: _397  and  _398
REMARK  145  A    between atoms: _398  and  _399
REMARK                            x       y       z     vdW  Elec       q    Type
REMARK                         _______ _______ _______ _____ _____    ______ ____
ROOT
ATOM      1  O   HOH     1      18.626  -3.386  11.378  0.00  0.00    +0.000 OA
ENDROOT
TORSDOF 0
REMARK  Name = ../refined-set-2016/3s78/3s78_pocket.pdb
REMARK  145 active torsions:
REMARK  status: ('A' for Active; 'I' for Inactive)
REMARK    1  A    between atoms: _1  and  _3
REMARK    2  A    between atoms: _3  and  _4
REMARK    3  A    between atoms: _3  and  _6
REMARK    4  A    between atoms: _6  and  _7
REMARK    5  A    between atoms: _17  and  _19
REMARK    6  A    between atoms: _19  and  _20
REMARK    7  A    between atoms: _19  and  _22
REMARK    8  A    between atoms: _22  and  _23
REMARK    9  A    between atoms: _28  and  _29
REMARK   10  A    between atoms: _31  and  _33
REMARK   11  A    between atoms: _33  and  _34
REMARK   12  A    between atoms: _33  and  _36
REMARK   13  A    between atoms: _36  and  _37
REMARK   14  A    between atoms: _40  and  _41
REMARK   15  A    between atoms: _46  and  _48
REMARK   16  A    between atoms: _48  and  _49
REMARK   17  A    between atoms: _48  and  _51
REMARK   18  A    between atoms: _51  and  _52
REMARK   19  A    between atoms: _57  and  _59
REMARK   20  A    between atoms: _59  and  _60
REMARK   21  A    between atoms: _63  and  _65
REMARK   22  A    between atoms: _65  and  _66
REMARK   23  A    between atoms: _65  and  _68
REMARK   24  A    between atoms: _68  and  _69
REMARK   25  A    between atoms: _74  and  _76
REMARK   26  A    between atoms: _76  and  _77
REMARK   27  A    between atoms: _76  and  _79
REMARK   28  A    between atoms: _79  and  _80
REMARK   29  A    between atoms: _83  and  _85
REMARK   30  A    between atoms: _85  and  _86
REMARK   31  A    between atoms: _85  and  _88
REMARK   32  A    between atoms: _88  and  _89
REMARK   33  A    between atoms: _89  and  _90
REMARK   34  A    between atoms: _95  and  _97
REMARK   35  A    between atoms: _97  and  _98
REMARK   36  A    between atoms: _97  and  _100
REMARK   37  A    between atoms: _100  and  _101
REMARK   38  A    between atoms: _107  and  _109
REMARK   39  A    between atoms: _120  and  _123
REMARK   40  A    between atoms: _123  and  _124
REMARK   41  A    between atoms: _132  and  _133
REMARK   42  A    between atoms: _141  and  _143
REMARK   43  A    between atoms: _143  and  _144
REMARK   44  A    between atoms: _143  and  _146
REMARK   45  A    between atoms: _146  and  _147
REMARK   46  A    between atoms: _147  and  _148
REMARK   47  A    between atoms: _151  and  _153
REMARK   48  A    between atoms: _153  and  _154
REMARK   49  A    between atoms: _153  and  _156
REMARK   50  A    between atoms: _156  and  _157
REMARK   51  A    between atoms: _162  and  _164
REMARK   52  A    between atoms: _164  and  _165
REMARK   53  A    between atoms: _164  and  _167
REMARK   54  A    between atoms: _167  and  _168
REMARK   55  A    between atoms: _168  and  _169
REMARK   56  A    between atoms: _172  and  _174
REMARK   57  A    between atoms: _174  and  _175
REMARK   58  A    between atoms: _174  and  _177
REMARK   59  A    between atoms: _177  and  _178
REMARK   60  A    between atoms: _181  and  _183
REMARK   61  A    between atoms: _183  and  _184
REMARK   62  A    between atoms: _183  and  _186
REMARK   63  A    between atoms: _186  and  _187
REMARK   64  A    between atoms: _188  and  ZN_408
REMARK   65  A    between atoms: _192  and  _194
REMARK   66  A    between atoms: _194  and  _195
REMARK   67  A    between atoms: _194  and  _197
REMARK   68  A    between atoms: _197  and  _198
REMARK   69  A    between atoms: _201  and  _203
REMARK   70  A    between atoms: _203  and  _204
REMARK   71  A    between atoms: _203  and  _206
REMARK   72  A    between atoms: _209  and  _211
REMARK   73  A    between atoms: _211  and  _212
REMARK   74  A    between atoms: _211  and  _214
REMARK   75  A    between atoms: _214  and  _215
REMARK   76  A    between atoms: _220  and  _222
REMARK   77  A    between atoms: _222  and  _223
REMARK   78  A    between atoms: _222  and  _225
REMARK   79  A    between atoms: _225  and  _226
REMARK   80  A    between atoms: _232  and  _234
REMARK   81  A    between atoms: _234  and  _235
REMARK   82  A    between atoms: _234  and  _237
REMARK   83  A    between atoms: _240  and  _242
REMARK   84  A    between atoms: _242  and  _243
REMARK   85  A    between atoms: _242  and  _245
REMARK   86  A    between atoms: _245  and  _246
REMARK   87  A    between atoms: _249  and  _251
REMARK   88  A    between atoms: _251  and  _252
REMARK   89  A    between atoms: _255  and  _257
REMARK   90  A    between atoms: _257  and  _258
REMARK   91  A    between atoms: _257  and  _260
REMARK   92  A    between atoms: _263  and  _265
REMARK   93  A    between atoms: _265  and  _266
REMARK   94  A    between atoms: _265  and  _268
REMARK   95  A    between atoms: _268  and  _269
REMARK   96  A    between atoms: _272  and  _274
REMARK   97  A    between atoms: _274  and  _275
REMARK   98  A    between atoms: _277  and  _279
REMARK   99  A    between atoms: _279  and  _280
REMARK  100  A    between atoms: _282  and  _284
REMARK  101  A    between atoms: _284  and  _285
REMARK  102  A    between atoms: _284  and  _287
REMARK  103  A    between atoms: _287  and  _288
REMARK  104  A    between atoms: _290  and  _292
REMARK  105  A    between atoms: _292  and  _293
REMARK  106  A    between atoms: _292  and  _295
REMARK  107  A    between atoms: _295  and  _296
REMARK  108  A    between atoms: _299  and  _301
REMARK  109  A    between atoms: _301  and  _302
REMARK  110  A    between atoms: _301  and  _304
REMARK  111  A    between atoms: _304  and  _305
REMARK  112  A    between atoms: _308  and  _310
REMARK  113  A    between atoms: _310  and  _311
REMARK  114  A    between atoms: _310  and  _313
REMARK  115  A    between atoms: _313  and  _314
REMARK  116  A    between atoms: _318  and  _319
REMARK  117  A    between atoms: _325  and  _326
REMARK  118  A    between atoms: _331  and  _333
REMARK  119  A    between atoms: _333  and  _334
REMARK  120  A    between atoms: _333  and  _336
REMARK  121  A    between atoms: _336  and  _337
REMARK  122  A    between atoms: _340  and  _342
REMARK  123  A    between atoms: _342  and  _343
REMARK  124  A    between atoms: _342  and  _345
REMARK  125  A    between atoms: _345  and  _346
REMARK  126  A    between atoms: _349  and  _351
REMARK  127  A    between atoms: _351  and  _352
REMARK  128  A    between atoms: _351  and  _354
REMARK  129  A    between atoms: _356  and  _358
REMARK  130  A    between atoms: _358  and  _359
REMARK  131  A    between atoms: _358  and  _361
REMARK  132  A    between atoms: _364  and  _366
REMARK  133  A    between atoms: _366  and  _367
REMARK  134  A    between atoms: _366  and  _369
REMARK  135  A    between atoms: _369  and  _370
REMARK  136  A    between atoms: _380  and  _382
REMARK  137  A    between atoms: _382  and  _383
REMARK  138  A    between atoms: _382  and  _385
REMARK  139  A    between atoms: _385  and  _386
REMARK  140  A    between atoms: _391  and  _393
REMARK  141  A    between atoms: _393  and  _394
REMARK  142  A    between atoms: _393  and  _396
REMARK  143  A    between atoms: _396  and  _397
REMARK  144  A    between atoms: _397  and  _398
REMARK  145  A    between atoms: _398  and  _399
REMARK                            x       y       z     vdW  Elec       q    Type
REMARK                         _______ _______ _______ _____ _____    ______ ____
ROOT
ATOM      1  O   HOH     1      16.131   0.984  10.001  0.00  0.00    +0.000 OA
ENDROOT
TORSDOF 0
REMARK  Name = ../refined-set-2016/3s78/3s78_pocket.pdb
REMARK  145 active torsions:
REMARK  status: ('A' for Active; 'I' for Inactive)
REMARK    1  A    between atoms: _1  and  _3
REMARK    2  A    between atoms: _3  and  _4
REMARK    3  A    between atoms: _3  and  _6
REMARK    4  A    between atoms: _6  and  _7
REMARK    5  A    between atoms: _17  and  _19
REMARK    6  A    between atoms: _19  and  _20
REMARK    7  A    between atoms: _19  and  _22
REMARK    8  A    between atoms: _22  and  _23
REMARK    9  A    between atoms: _28  and  _29
REMARK   10  A    between atoms: _31  and  _33
REMARK   11  A    between atoms: _33  and  _34
REMARK   12  A    between atoms: _33  and  _36
REMARK   13  A    between atoms: _36  and  _37
REMARK   14  A    between atoms: _40  and  _41
REMARK   15  A    between atoms: _46  and  _48
REMARK   16  A    between atoms: _48  and  _49
REMARK   17  A    between atoms: _48  and  _51
REMARK   18  A    between atoms: _51  and  _52
REMARK   19  A    between atoms: _57  and  _59
REMARK   20  A    between atoms: _59  and  _60
REMARK   21  A    between atoms: _63  and  _65
REMARK   22  A    between atoms: _65  and  _66
REMARK   23  A    between atoms: _65  and  _68
REMARK   24  A    between atoms: _68  and  _69
REMARK   25  A    between atoms: _74  and  _76
REMARK   26  A    between atoms: _76  and  _77
REMARK   27  A    between atoms: _76  and  _79
REMARK   28  A    between atoms: _79  and  _80
REMARK   29  A    between atoms: _83  and  _85
REMARK   30  A    between atoms: _85  and  _86
REMARK   31  A    between atoms: _85  and  _88
REMARK   32  A    between atoms: _88  and  _89
REMARK   33  A    between atoms: _89  and  _90
REMARK   34  A    between atoms: _95  and  _97
REMARK   35  A    between atoms: _97  and  _98
REMARK   36  A    between atoms: _97  and  _100
REMARK   37  A    between atoms: _100  and  _101
REMARK   38  A    between atoms: _107  and  _109
REMARK   39  A    between atoms: _120  and  _123
REMARK   40  A    between atoms: _123  and  _124
REMARK   41  A    between atoms: _132  and  _133
REMARK   42  A    between atoms: _141  and  _143
REMARK   43  A    between atoms: _143  and  _144
REMARK   44  A    between atoms: _143  and  _146
REMARK   45  A    between atoms: _146  and  _147
REMARK   46  A    between atoms: _147  and  _148
REMARK   47  A    between atoms: _151  and  _153
REMARK   48  A    between atoms: _153  and  _154
REMARK   49  A    between atoms: _153  and  _156
REMARK   50  A    between atoms: _156  and  _157
REMARK   51  A    between atoms: _162  and  _164
REMARK   52  A    between atoms: _164  and  _165
REMARK   53  A    between atoms: _164  and  _167
REMARK   54  A    between atoms: _167  and  _168
REMARK   55  A    between atoms: _168  and  _169
REMARK   56  A    between atoms: _172  and  _174
REMARK   57  A    between atoms: _174  and  _175
REMARK   58  A    between atoms: _174  and  _177
REMARK   59  A    between atoms: _177  and  _178
REMARK   60  A    between atoms: _181  and  _183
REMARK   61  A    between atoms: _183  and  _184
REMARK   62  A    between atoms: _183  and  _186
REMARK   63  A    between atoms: _186  and  _187
REMARK   64  A    between atoms: _188  and  ZN_408
REMARK   65  A    between atoms: _192  and  _194
REMARK   66  A    between atoms: _194  and  _195
REMARK   67  A    between atoms: _194  and  _197
REMARK   68  A    between atoms: _197  and  _198
REMARK   69  A    between atoms: _201  and  _203
REMARK   70  A    between atoms: _203  and  _204
REMARK   71  A    between atoms: _203  and  _206
REMARK   72  A    between atoms: _209  and  _211
REMARK   73  A    between atoms: _211  and  _212
REMARK   74  A    between atoms: _211  and  _214
REMARK   75  A    between atoms: _214  and  _215
REMARK   76  A    between atoms: _220  and  _222
REMARK   77  A    between atoms: _222  and  _223
REMARK   78  A    between atoms: _222  and  _225
REMARK   79  A    between atoms: _225  and  _226
REMARK   80  A    between atoms: _232  and  _234
REMARK   81  A    between atoms: _234  and  _235
REMARK   82  A    between atoms: _234  and  _237
REMARK   83  A    between atoms: _240  and  _242
REMARK   84  A    between atoms: _242  and  _243
REMARK   85  A    between atoms: _242  and  _245
REMARK   86  A    between atoms: _245  and  _246
REMARK   87  A    between atoms: _249  and  _251
REMARK   88  A    between atoms: _251  and  _252
REMARK   89  A    between atoms: _255  and  _257
REMARK   90  A    between atoms: _257  and  _258
REMARK   91  A    between atoms: _257  and  _260
REMARK   92  A    between atoms: _263  and  _265
REMARK   93  A    between atoms: _265  and  _266
REMARK   94  A    between atoms: _265  and  _268
REMARK   95  A    between atoms: _268  and  _269
REMARK   96  A    between atoms: _272  and  _274
REMARK   97  A    between atoms: _274  and  _275
REMARK   98  A    between atoms: _277  and  _279
REMARK   99  A    between atoms: _279  and  _280
REMARK  100  A    between atoms: _282  and  _284
REMARK  101  A    between atoms: _284  and  _285
REMARK  102  A    between atoms: _284  and  _287
REMARK  103  A    between atoms: _287  and  _288
REMARK  104  A    between atoms: _290  and  _292
REMARK  105  A    between atoms: _292  and  _293
REMARK  106  A    between atoms: _292  and  _295
REMARK  107  A    between atoms: _295  and  _296
REMARK  108  A    between atoms: _299  and  _301
REMARK  109  A    between atoms: _301  and  _302
REMARK  110  A    between atoms: _301  and  _304
REMARK  111  A    between atoms: _304  and  _305
REMARK  112  A    between atoms: _308  and  _310
REMARK  113  A    between atoms: _310  and  _311
REMARK  114  A    between atoms: _310  and  _313
REMARK  115  A    between atoms: _313  and  _314
REMARK  116  A    between atoms: _318  and  _319
REMARK  117  A    between atoms: _325  and  _326
REMARK  118  A    between atoms: _331  and  _333
REMARK  119  A    between atoms: _333  and  _334
REMARK  120  A    between atoms: _333  and  _336
REMARK  121  A    between atoms: _336  and  _337
REMARK  122  A    between atoms: _340  and  _342
REMARK  123  A    between atoms: _342  and  _343
REMARK  124  A    between atoms: _342  and  _345
REMARK  125  A    between atoms: _345  and  _346
REMARK  126  A    between atoms: _349  and  _351
REMARK  127  A    between atoms: _351  and  _352
REMARK  128  A    between atoms: _351  and  _354
REMARK  129  A    between atoms: _356  and  _358
REMARK  130  A    between atoms: _358  and  _359
REMARK  131  A    between atoms: _358  and  _361
REMARK  132  A    between atoms: _364  and  _366
REMARK  133  A    between atoms: _366  and  _367
REMARK  134  A    between atoms: _366  and  _369
REMARK  135  A    between atoms: _369  and  _370
REMARK  136  A    between atoms: _380  and  _382
REMARK  137  A    between atoms: _382  and  _383
REMARK  138  A    between atoms: _382  and  _385
REMARK  139  A    between atoms: _385  and  _386
REMARK  140  A    between atoms: _391  and  _393
REMARK  141  A    between atoms: _393  and  _394
REMARK  142  A    between atoms: _393  and  _396
REMARK  143  A    between atoms: _396  and  _397
REMARK  144  A    between atoms: _397  and  _398
REMARK  145  A    between atoms: _398  and  _399
REMARK                            x       y       z     vdW  Elec       q    Type
REMARK                         _______ _______ _______ _____ _____    ______ ____
ROOT
ATOM      1  O   HOH     1      15.774   2.302  11.963  0.00  0.00    +0.000 OA
ENDROOT
TORSDOF 0
REMARK  Name = ../refined-set-2016/3s78/3s78_pocket.pdb
REMARK  145 active torsions:
REMARK  status: ('A' for Active; 'I' for Inactive)
REMARK    1  A    between atoms: _1  and  _3
REMARK    2  A    between atoms: _3  and  _4
REMARK    3  A    between atoms: _3  and  _6
REMARK    4  A    between atoms: _6  and  _7
REMARK    5  A    between atoms: _17  and  _19
REMARK    6  A    between atoms: _19  and  _20
REMARK    7  A    between atoms: _19  and  _22
REMARK    8  A    between atoms: _22  and  _23
REMARK    9  A    between atoms: _28  and  _29
REMARK   10  A    between atoms: _31  and  _33
REMARK   11  A    between atoms: _33  and  _34
REMARK   12  A    between atoms: _33  and  _36
REMARK   13  A    between atoms: _36  and  _37
REMARK   14  A    between atoms: _40  and  _41
REMARK   15  A    between atoms: _46  and  _48
REMARK   16  A    between atoms: _48  and  _49
REMARK   17  A    between atoms: _48  and  _51
REMARK   18  A    between atoms: _51  and  _52
REMARK   19  A    between atoms: _57  and  _59
REMARK   20  A    between atoms: _59  and  _60
REMARK   21  A    between atoms: _63  and  _65
REMARK   22  A    between atoms: _65  and  _66
REMARK   23  A    between atoms: _65  and  _68
REMARK   24  A    between atoms: _68  and  _69
REMARK   25  A    between atoms: _74  and  _76
REMARK   26  A    between atoms: _76  and  _77
REMARK   27  A    between atoms: _76  and  _79
REMARK   28  A    between atoms: _79  and  _80
REMARK   29  A    between atoms: _83  and  _85
REMARK   30  A    between atoms: _85  and  _86
REMARK   31  A    between atoms: _85  and  _88
REMARK   32  A    between atoms: _88  and  _89
REMARK   33  A    between atoms: _89  and  _90
REMARK   34  A    between atoms: _95  and  _97
REMARK   35  A    between atoms: _97  and  _98
REMARK   36  A    between atoms: _97  and  _100
REMARK   37  A    between atoms: _100  and  _101
REMARK   38  A    between atoms: _107  and  _109
REMARK   39  A    between atoms: _120  and  _123
REMARK   40  A    between atoms: _123  and  _124
REMARK   41  A    between atoms: _132  and  _133
REMARK   42  A    between atoms: _141  and  _143
REMARK   43  A    between atoms: _143  and  _144
REMARK   44  A    between atoms: _143  and  _146
REMARK   45  A    between atoms: _146  and  _147
REMARK   46  A    between atoms: _147  and  _148
REMARK   47  A    between atoms: _151  and  _153
REMARK   48  A    between atoms: _153  and  _154
REMARK   49  A    between atoms: _153  and  _156
REMARK   50  A    between atoms: _156  and  _157
REMARK   51  A    between atoms: _162  and  _164
REMARK   52  A    between atoms: _164  and  _165
REMARK   53  A    between atoms: _164  and  _167
REMARK   54  A    between atoms: _167  and  _168
REMARK   55  A    between atoms: _168  and  _169
REMARK   56  A    between atoms: _172  and  _174
REMARK   57  A    between atoms: _174  and  _175
REMARK   58  A    between atoms: _174  and  _177
REMARK   59  A    between atoms: _177  and  _178
REMARK   60  A    between atoms: _181  and  _183
REMARK   61  A    between atoms: _183  and  _184
REMARK   62  A    between atoms: _183  and  _186
REMARK   63  A    between atoms: _186  and  _187
REMARK   64  A    between atoms: _188  and  ZN_408
REMARK   65  A    between atoms: _192  and  _194
REMARK   66  A    between atoms: _194  and  _195
REMARK   67  A    between atoms: _194  and  _197
REMARK   68  A    between atoms: _197  and  _198
REMARK   69  A    between atoms: _201  and  _203
REMARK   70  A    between atoms: _203  and  _204
REMARK   71  A    between atoms: _203  and  _206
REMARK   72  A    between atoms: _209  and  _211
REMARK   73  A    between atoms: _211  and  _212
REMARK   74  A    between atoms: _211  and  _214
REMARK   75  A    between atoms: _214  and  _215
REMARK   76  A    between atoms: _220  and  _222
REMARK   77  A    between atoms: _222  and  _223
REMARK   78  A    between atoms: _222  and  _225
REMARK   79  A    between atoms: _225  and  _226
REMARK   80  A    between atoms: _232  and  _234
REMARK   81  A    between atoms: _234  and  _235
REMARK   82  A    between atoms: _234  and  _237
REMARK   83  A    between atoms: _240  and  _242
REMARK   84  A    between atoms: _242  and  _243
REMARK   85  A    between atoms: _242  and  _245
REMARK   86  A    between atoms: _245  and  _246
REMARK   87  A    between atoms: _249  and  _251
REMARK   88  A    between atoms: _251  and  _252
REMARK   89  A    between atoms: _255  and  _257
REMARK   90  A    between atoms: _257  and  _258
REMARK   91  A    between atoms: _257  and  _260
REMARK   92  A    between atoms: _263  and  _265
REMARK   93  A    between atoms: _265  and  _266
REMARK   94  A    between atoms: _265  and  _268
REMARK   95  A    between atoms: _268  and  _269
REMARK   96  A    between atoms: _272  and  _274
REMARK   97  A    between atoms: _274  and  _275
REMARK   98  A    between atoms: _277  and  _279
REMARK   99  A    between atoms: _279  and  _280
REMARK  100  A    between atoms: _282  and  _284
REMARK  101  A    between atoms: _284  and  _285
REMARK  102  A    between atoms: _284  and  _287
REMARK  103  A    between atoms: _287  and  _288
REMARK  104  A    between atoms: _290  and  _292
REMARK  105  A    between atoms: _292  and  _293
REMARK  106  A    between atoms: _292  and  _295
REMARK  107  A    between atoms: _295  and  _296
REMARK  108  A    between atoms: _299  and  _301
REMARK  109  A    between atoms: _301  and  _302
REMARK  110  A    between atoms: _301  and  _304
REMARK  111  A    between atoms: _304  and  _305
REMARK  112  A    between atoms: _308  and  _310
REMARK  113  A    between atoms: _310  and  _311
REMARK  114  A    between atoms: _310  and  _313
REMARK  115  A    between atoms: _313  and  _314
REMARK  116  A    between atoms: _318  and  _319
REMARK  117  A    between atoms: _325  and  _326
REMARK  118  A    between atoms: _331  and  _333
REMARK  119  A    between atoms: _333  and  _334
REMARK  120  A    between atoms: _333  and  _336
REMARK  121  A    between atoms: _336  and  _337
REMARK  122  A    between atoms: _340  and  _342
REMARK  123  A    between atoms: _342  and  _343
REMARK  124  A    between atoms: _342  and  _345
REMARK  125  A    between atoms: _345  and  _346
REMARK  126  A    between atoms: _349  and  _351
REMARK  127  A    between atoms: _351  and  _352
REMARK  128  A    between atoms: _351  and  _354
REMARK  129  A    between atoms: _356  and  _358
REMARK  130  A    between atoms: _358  and  _359
REMARK  131  A    between atoms: _358  and  _361
REMARK  132  A    between atoms: _364  and  _366
REMARK  133  A    between atoms: _366  and  _367
REMARK  134  A    between atoms: _366  and  _369
REMARK  135  A    between atoms: _369  and  _370
REMARK  136  A    between atoms: _380  and  _382
REMARK  137  A    between atoms: _382  and  _383
REMARK  138  A    between atoms: _382  and  _385
REMARK  139  A    between atoms: _385  and  _386
REMARK  140  A    between atoms: _391  and  _393
REMARK  141  A    between atoms: _393  and  _394
REMARK  142  A    between atoms: _393  and  _396
REMARK  143  A    between atoms: _396  and  _397
REMARK  144  A    between atoms: _397  and  _398
REMARK  145  A    between atoms: _398  and  _399
REMARK                            x       y       z     vdW  Elec       q    Type
REMARK                         _______ _______ _______ _____ _____    ______ ____
ROOT
ATOM      1  O   HOH     1      16.959   4.370  10.790  0.00  0.00    +0.000 OA
ENDROOT
TORSDOF 0
