REMARK  Name = ../refined-set-2016/3lzu/3lzu_pocket.pdb
REMARK  208 active torsions:
REMARK  status: ('A' for Active; 'I' for Inactive)
REMARK    1  A    between atoms: _1  and  _3
REMARK    2  A    between atoms: _3  and  _4
REMARK    3  A    between atoms: _3  and  _6
REMARK    4  A    between atoms: _6  and  _7
REMARK    5  A    between atoms: _7  and  _8
REMARK    6  A    between atoms: _8  and  _9
REMARK    7  A    between atoms: _18  and  _20
REMARK    8  A    between atoms: _20  and  _21
REMARK    9  A    between atoms: _20  and  _23
REMARK   10  A    between atoms: _23  and  _24
REMARK   11  A    between atoms: _27  and  _29
REMARK   12  A    between atoms: _29  and  _30
REMARK   13  A    between atoms: _29  and  _32
REMARK   14  A    between atoms: _32  and  _33
REMARK   15  A    between atoms: _36  and  _38
REMARK   16  A    between atoms: _38  and  _39
REMARK   17  A    between atoms: _38  and  _41
REMARK   18  A    between atoms: _41  and  _42
REMARK   19  A    between atoms: _45  and  _47
REMARK   20  A    between atoms: _47  and  _48
REMARK   21  A    between atoms: _47  and  _50
REMARK   22  A    between atoms: _50  and  _51
REMARK   23  A    between atoms: _54  and  _56
REMARK   24  A    between atoms: _56  and  _57
REMARK   25  A    between atoms: _59  and  _61
REMARK   26  A    between atoms: _61  and  _62
REMARK   27  A    between atoms: _65  and  _67
REMARK   28  A    between atoms: _67  and  _68
REMARK   29  A    between atoms: _67  and  _70
REMARK   30  A    between atoms: _70  and  _71
REMARK   31  A    between atoms: _74  and  _76
REMARK   32  A    between atoms: _76  and  _77
REMARK   33  A    between atoms: _76  and  _79
REMARK   34  A    between atoms: _79  and  _80
REMARK   35  A    between atoms: _83  and  _85
REMARK   36  A    between atoms: _85  and  _86
REMARK   37  A    between atoms: _85  and  _88
REMARK   38  A    between atoms: _88  and  _89
REMARK   39  A    between atoms: _92  and  _94
REMARK   40  A    between atoms: _94  and  _95
REMARK   41  A    between atoms: _94  and  _97
REMARK   42  A    between atoms: _100  and  _102
REMARK   43  A    between atoms: _102  and  _103
REMARK   44  A    between atoms: _102  and  _105
REMARK   45  A    between atoms: _105  and  _106
REMARK   46  A    between atoms: _106  and  _107
REMARK   47  A    between atoms: _109  and  _111
REMARK   48  A    between atoms: _111  and  _112
REMARK   49  A    between atoms: _111  and  _114
REMARK   50  A    between atoms: _114  and  _115
REMARK   51  A    between atoms: _118  and  _120
REMARK   52  A    between atoms: _120  and  _121
REMARK   53  A    between atoms: _123  and  _125
REMARK   54  A    between atoms: _125  and  _126
REMARK   55  A    between atoms: _128  and  _130
REMARK   56  A    between atoms: _130  and  _131
REMARK   57  A    between atoms: _130  and  _133
REMARK   58  A    between atoms: _133  and  _134
REMARK   59  A    between atoms: _137  and  _139
REMARK   60  A    between atoms: _139  and  _140
REMARK   61  A    between atoms: _142  and  _144
REMARK   62  A    between atoms: _144  and  _145
REMARK   63  A    between atoms: _147  and  _149
REMARK   64  A    between atoms: _149  and  _150
REMARK   65  A    between atoms: _149  and  _152
REMARK   66  A    between atoms: _152  and  _153
REMARK   67  A    between atoms: _156  and  _158
REMARK   68  A    between atoms: _158  and  _159
REMARK   69  A    between atoms: _158  and  _161
REMARK   70  A    between atoms: _161  and  _162
REMARK   71  A    between atoms: _165  and  _167
REMARK   72  A    between atoms: _167  and  _168
REMARK   73  A    between atoms: _167  and  _170
REMARK   74  A    between atoms: _170  and  _171
REMARK   75  A    between atoms: _175  and  _176
REMARK   76  A    between atoms: _181  and  _183
REMARK   77  A    between atoms: _183  and  _184
REMARK   78  A    between atoms: _183  and  _186
REMARK   79  A    between atoms: _189  and  _191
REMARK   80  A    between atoms: _191  and  _192
REMARK   81  A    between atoms: _191  and  _194
REMARK   82  A    between atoms: _194  and  _195
REMARK   83  A    between atoms: _200  and  _202
REMARK   84  A    between atoms: _202  and  _203
REMARK   85  A    between atoms: _202  and  _205
REMARK   86  A    between atoms: _205  and  _206
REMARK   87  A    between atoms: _209  and  _211
REMARK   88  A    between atoms: _211  and  _212
REMARK   89  A    between atoms: _211  and  _214
REMARK   90  A    between atoms: _214  and  _215
REMARK   91  A    between atoms: _218  and  _220
REMARK   92  A    between atoms: _220  and  _221
REMARK   93  A    between atoms: _223  and  _225
REMARK   94  A    between atoms: _225  and  _226
REMARK   95  A    between atoms: _225  and  _228
REMARK   96  A    between atoms: _228  and  _229
REMARK   97  A    between atoms: _229  and  _230
REMARK   98  A    between atoms: _230  and  _231
REMARK   99  A    between atoms: _240  and  _242
REMARK  100  A    between atoms: _242  and  _243
REMARK  101  A    between atoms: _242  and  _245
REMARK  102  A    between atoms: _245  and  _246
REMARK  103  A    between atoms: _248  and  _250
REMARK  104  A    between atoms: _250  and  _251
REMARK  105  A    between atoms: _250  and  _253
REMARK  106  A    between atoms: _253  and  _254
REMARK  107  A    between atoms: _254  and  _255
REMARK  108  A    between atoms: _255  and  _256
REMARK  109  A    between atoms: _265  and  _267
REMARK  110  A    between atoms: _267  and  _268
REMARK  111  A    between atoms: _267  and  _270
REMARK  112  A    between atoms: _270  and  _271
REMARK  113  A    between atoms: _274  and  _276
REMARK  114  A    between atoms: _276  and  _277
REMARK  115  A    between atoms: _276  and  _279
REMARK  116  A    between atoms: _279  and  _280
REMARK  117  A    between atoms: _283  and  _285
REMARK  118  A    between atoms: _285  and  _286
REMARK  119  A    between atoms: _285  and  _288
REMARK  120  A    between atoms: _288  and  _289
REMARK  121  A    between atoms: _292  and  _294
REMARK  122  A    between atoms: _294  and  _295
REMARK  123  A    between atoms: _294  and  _297
REMARK  124  A    between atoms: _297  and  _298
REMARK  125  A    between atoms: _301  and  _303
REMARK  126  A    between atoms: _303  and  _304
REMARK  127  A    between atoms: _306  and  _308
REMARK  128  A    between atoms: _308  and  _309
REMARK  129  A    between atoms: _312  and  _314
REMARK  130  A    between atoms: _314  and  _315
REMARK  131  A    between atoms: _314  and  _317
REMARK  132  A    between atoms: _317  and  _318
REMARK  133  A    between atoms: _321  and  _323
REMARK  134  A    between atoms: _323  and  _324
REMARK  135  A    between atoms: _323  and  _326
REMARK  136  A    between atoms: _326  and  _327
REMARK  137  A    between atoms: _330  and  _332
REMARK  138  A    between atoms: _332  and  _333
REMARK  139  A    between atoms: _332  and  _335
REMARK  140  A    between atoms: _335  and  _336
REMARK  141  A    between atoms: _339  and  _341
REMARK  142  A    between atoms: _341  and  _342
REMARK  143  A    between atoms: _341  and  _344
REMARK  144  A    between atoms: _347  and  _349
REMARK  145  A    between atoms: _349  and  _350
REMARK  146  A    between atoms: _349  and  _352
REMARK  147  A    between atoms: _352  and  _353
REMARK  148  A    between atoms: _353  and  _354
REMARK  149  A    between atoms: _356  and  _358
REMARK  150  A    between atoms: _358  and  _359
REMARK  151  A    between atoms: _358  and  _361
REMARK  152  A    between atoms: _361  and  _362
REMARK  153  A    between atoms: _365  and  _367
REMARK  154  A    between atoms: _367  and  _368
REMARK  155  A    between atoms: _370  and  _372
REMARK  156  A    between atoms: _372  and  _373
REMARK  157  A    between atoms: _375  and  _377
REMARK  158  A    between atoms: _377  and  _378
REMARK  159  A    between atoms: _377  and  _380
REMARK  160  A    between atoms: _380  and  _381
REMARK  161  A    between atoms: _384  and  _386
REMARK  162  A    between atoms: _386  and  _387
REMARK  163  A    between atoms: _389  and  _391
REMARK  164  A    between atoms: _391  and  _392
REMARK  165  A    between atoms: _394  and  _396
REMARK  166  A    between atoms: _396  and  _397
REMARK  167  A    between atoms: _396  and  _399
REMARK  168  A    between atoms: _399  and  _400
REMARK  169  A    between atoms: _403  and  _405
REMARK  170  A    between atoms: _405  and  _406
REMARK  171  A    between atoms: _405  and  _408
REMARK  172  A    between atoms: _411  and  _413
REMARK  173  A    between atoms: _413  and  _414
REMARK  174  A    between atoms: _413  and  _416
REMARK  175  A    between atoms: _416  and  _417
REMARK  176  A    between atoms: _421  and  _422
REMARK  177  A    between atoms: _427  and  _429
REMARK  178  A    between atoms: _429  and  _430
REMARK  179  A    between atoms: _429  and  _432
REMARK  180  A    between atoms: _432  and  _433
REMARK  181  A    between atoms: _437  and  _438
REMARK  182  A    between atoms: _443  and  _445
REMARK  183  A    between atoms: _445  and  _446
REMARK  184  A    between atoms: _445  and  _448
REMARK  185  A    between atoms: _451  and  _453
REMARK  186  A    between atoms: _453  and  _454
REMARK  187  A    between atoms: _453  and  _456
REMARK  188  A    between atoms: _456  and  _457
REMARK  189  A    between atoms: _462  and  _464
REMARK  190  A    between atoms: _464  and  _465
REMARK  191  A    between atoms: _464  and  _467
REMARK  192  A    between atoms: _467  and  _468
REMARK  193  A    between atoms: _471  and  _473
REMARK  194  A    between atoms: _473  and  _474
REMARK  195  A    between atoms: _473  and  _476
REMARK  196  A    between atoms: _476  and  _477
REMARK  197  A    between atoms: _480  and  _482
REMARK  198  A    between atoms: _482  and  _483
REMARK  199  A    between atoms: _485  and  _487
REMARK  200  A    between atoms: _487  and  _488
REMARK  201  A    between atoms: _487  and  _490
REMARK  202  A    between atoms: _490  and  _491
REMARK  203  A    between atoms: _491  and  _492
REMARK  204  A    between atoms: _492  and  _493
REMARK  205  A    between atoms: _502  and  _504
REMARK  206  A    between atoms: _504  and  _505
REMARK  207  A    between atoms: _504  and  _507
REMARK  208  A    between atoms: _507  and  _508
REMARK                            x       y       z     vdW  Elec       q    Type
REMARK                         _______ _______ _______ _____ _____    ______ ____
ROOT
ATOM      1  NE  ARG A   1       2.335 -25.242  -5.151  0.00  0.00    -0.265 N 
ATOM      2  CZ  ARG A   1       1.134 -25.159  -4.588  0.00  0.00    +0.342 C 
ATOM      3  NH2 ARG A   1       0.865 -24.258  -3.647  0.00  0.00    -0.292 N 
ATOM      4 HH21 ARG A   1      -0.084 -24.216  -3.224  0.00  0.00    +0.255 HD
ATOM      5 HH22 ARG A   1       1.604 -23.596  -3.335  0.00  0.00    +0.255 HD
ATOM      6  NH1 ARG A   1       0.185 -25.997  -4.978  0.00  0.00    -0.292 N 
ATOM      7 HH11 ARG A   1      -0.761 -25.947  -4.549  0.00  0.00    +0.255 HD
ATOM      8 HH12 ARG A   1       0.386 -26.705  -5.713  0.00  0.00    +0.255 HD
ATOM      9  HE  ARG A   1       2.470 -25.977  -5.874  0.00  0.00    +0.259 HD
ENDROOT
BRANCH   1  10
ATOM     10  CD  ARG A   1       3.481 -24.391  -4.843  0.00  0.00    +0.174 C 
BRANCH  10  11
ATOM     11  CG  ARG A   1       4.753 -25.059  -5.317  0.00  0.00    +0.045 C 
BRANCH  11  12
ATOM     12  CB  ARG A   1       4.887 -26.365  -4.589  0.00  0.00    +0.029 C 
BRANCH  12  13
ATOM     13  CA  ARG A   1       6.107 -27.200  -4.960  0.00  0.00    +0.133 C 
BRANCH  13  14
ATOM     14  N   ARG A   1       5.950 -27.806  -6.291  0.00  0.00    -0.239 NA
ATOM     15  H   ARG A   1       5.106 -27.590  -6.859  0.00  0.00    +0.142 HD
ENDBRANCH  13  14
BRANCH  13  16
ATOM     16  C   ARG A   1       6.238 -28.296  -3.911  0.00  0.00    +0.224 C 
ATOM     17  O   ARG A   1       5.472 -29.269  -3.958  0.00  0.00    -0.287 OA
ENDBRANCH  13  16
ENDBRANCH  12  13
ENDBRANCH  11  12
ENDBRANCH  10  11
ENDBRANCH   1  10
TORSDOF 6
REMARK  Name = ../refined-set-2016/3lzu/3lzu_pocket.pdb
REMARK  208 active torsions:
REMARK  status: ('A' for Active; 'I' for Inactive)
REMARK    1  A    between atoms: _1  and  _3
REMARK    2  A    between atoms: _3  and  _4
REMARK    3  A    between atoms: _3  and  _6
REMARK    4  A    between atoms: _6  and  _7
REMARK    5  A    between atoms: _7  and  _8
REMARK    6  A    between atoms: _8  and  _9
REMARK    7  A    between atoms: _18  and  _20
REMARK    8  A    between atoms: _20  and  _21
REMARK    9  A    between atoms: _20  and  _23
REMARK   10  A    between atoms: _23  and  _24
REMARK   11  A    between atoms: _27  and  _29
REMARK   12  A    between atoms: _29  and  _30
REMARK   13  A    between atoms: _29  and  _32
REMARK   14  A    between atoms: _32  and  _33
REMARK   15  A    between atoms: _36  and  _38
REMARK   16  A    between atoms: _38  and  _39
REMARK   17  A    between atoms: _38  and  _41
REMARK   18  A    between atoms: _41  and  _42
REMARK   19  A    between atoms: _45  and  _47
REMARK   20  A    between atoms: _47  and  _48
REMARK   21  A    between atoms: _47  and  _50
REMARK   22  A    between atoms: _50  and  _51
REMARK   23  A    between atoms: _54  and  _56
REMARK   24  A    between atoms: _56  and  _57
REMARK   25  A    between atoms: _59  and  _61
REMARK   26  A    between atoms: _61  and  _62
REMARK   27  A    between atoms: _65  and  _67
REMARK   28  A    between atoms: _67  and  _68
REMARK   29  A    between atoms: _67  and  _70
REMARK   30  A    between atoms: _70  and  _71
REMARK   31  A    between atoms: _74  and  _76
REMARK   32  A    between atoms: _76  and  _77
REMARK   33  A    between atoms: _76  and  _79
REMARK   34  A    between atoms: _79  and  _80
REMARK   35  A    between atoms: _83  and  _85
REMARK   36  A    between atoms: _85  and  _86
REMARK   37  A    between atoms: _85  and  _88
REMARK   38  A    between atoms: _88  and  _89
REMARK   39  A    between atoms: _92  and  _94
REMARK   40  A    between atoms: _94  and  _95
REMARK   41  A    between atoms: _94  and  _97
REMARK   42  A    between atoms: _100  and  _102
REMARK   43  A    between atoms: _102  and  _103
REMARK   44  A    between atoms: _102  and  _105
REMARK   45  A    between atoms: _105  and  _106
REMARK   46  A    between atoms: _106  and  _107
REMARK   47  A    between atoms: _109  and  _111
REMARK   48  A    between atoms: _111  and  _112
REMARK   49  A    between atoms: _111  and  _114
REMARK   50  A    between atoms: _114  and  _115
REMARK   51  A    between atoms: _118  and  _120
REMARK   52  A    between atoms: _120  and  _121
REMARK   53  A    between atoms: _123  and  _125
REMARK   54  A    between atoms: _125  and  _126
REMARK   55  A    between atoms: _128  and  _130
REMARK   56  A    between atoms: _130  and  _131
REMARK   57  A    between atoms: _130  and  _133
REMARK   58  A    between atoms: _133  and  _134
REMARK   59  A    between atoms: _137  and  _139
REMARK   60  A    between atoms: _139  and  _140
REMARK   61  A    between atoms: _142  and  _144
REMARK   62  A    between atoms: _144  and  _145
REMARK   63  A    between atoms: _147  and  _149
REMARK   64  A    between atoms: _149  and  _150
REMARK   65  A    between atoms: _149  and  _152
REMARK   66  A    between atoms: _152  and  _153
REMARK   67  A    between atoms: _156  and  _158
REMARK   68  A    between atoms: _158  and  _159
REMARK   69  A    between atoms: _158  and  _161
REMARK   70  A    between atoms: _161  and  _162
REMARK   71  A    between atoms: _165  and  _167
REMARK   72  A    between atoms: _167  and  _168
REMARK   73  A    between atoms: _167  and  _170
REMARK   74  A    between atoms: _170  and  _171
REMARK   75  A    between atoms: _175  and  _176
REMARK   76  A    between atoms: _181  and  _183
REMARK   77  A    between atoms: _183  and  _184
REMARK   78  A    between atoms: _183  and  _186
REMARK   79  A    between atoms: _189  and  _191
REMARK   80  A    between atoms: _191  and  _192
REMARK   81  A    between atoms: _191  and  _194
REMARK   82  A    between atoms: _194  and  _195
REMARK   83  A    between atoms: _200  and  _202
REMARK   84  A    between atoms: _202  and  _203
REMARK   85  A    between atoms: _202  and  _205
REMARK   86  A    between atoms: _205  and  _206
REMARK   87  A    between atoms: _209  and  _211
REMARK   88  A    between atoms: _211  and  _212
REMARK   89  A    between atoms: _211  and  _214
REMARK   90  A    between atoms: _214  and  _215
REMARK   91  A    between atoms: _218  and  _220
REMARK   92  A    between atoms: _220  and  _221
REMARK   93  A    between atoms: _223  and  _225
REMARK   94  A    between atoms: _225  and  _226
REMARK   95  A    between atoms: _225  and  _228
REMARK   96  A    between atoms: _228  and  _229
REMARK   97  A    between atoms: _229  and  _230
REMARK   98  A    between atoms: _230  and  _231
REMARK   99  A    between atoms: _240  and  _242
REMARK  100  A    between atoms: _242  and  _243
REMARK  101  A    between atoms: _242  and  _245
REMARK  102  A    between atoms: _245  and  _246
REMARK  103  A    between atoms: _248  and  _250
REMARK  104  A    between atoms: _250  and  _251
REMARK  105  A    between atoms: _250  and  _253
REMARK  106  A    between atoms: _253  and  _254
REMARK  107  A    between atoms: _254  and  _255
REMARK  108  A    between atoms: _255  and  _256
REMARK  109  A    between atoms: _265  and  _267
REMARK  110  A    between atoms: _267  and  _268
REMARK  111  A    between atoms: _267  and  _270
REMARK  112  A    between atoms: _270  and  _271
REMARK  113  A    between atoms: _274  and  _276
REMARK  114  A    between atoms: _276  and  _277
REMARK  115  A    between atoms: _276  and  _279
REMARK  116  A    between atoms: _279  and  _280
REMARK  117  A    between atoms: _283  and  _285
REMARK  118  A    between atoms: _285  and  _286
REMARK  119  A    between atoms: _285  and  _288
REMARK  120  A    between atoms: _288  and  _289
REMARK  121  A    between atoms: _292  and  _294
REMARK  122  A    between atoms: _294  and  _295
REMARK  123  A    between atoms: _294  and  _297
REMARK  124  A    between atoms: _297  and  _298
REMARK  125  A    between atoms: _301  and  _303
REMARK  126  A    between atoms: _303  and  _304
REMARK  127  A    between atoms: _306  and  _308
REMARK  128  A    between atoms: _308  and  _309
REMARK  129  A    between atoms: _312  and  _314
REMARK  130  A    between atoms: _314  and  _315
REMARK  131  A    between atoms: _314  and  _317
REMARK  132  A    between atoms: _317  and  _318
REMARK  133  A    between atoms: _321  and  _323
REMARK  134  A    between atoms: _323  and  _324
REMARK  135  A    between atoms: _323  and  _326
REMARK  136  A    between atoms: _326  and  _327
REMARK  137  A    between atoms: _330  and  _332
REMARK  138  A    between atoms: _332  and  _333
REMARK  139  A    between atoms: _332  and  _335
REMARK  140  A    between atoms: _335  and  _336
REMARK  141  A    between atoms: _339  and  _341
REMARK  142  A    between atoms: _341  and  _342
REMARK  143  A    between atoms: _341  and  _344
REMARK  144  A    between atoms: _347  and  _349
REMARK  145  A    between atoms: _349  and  _350
REMARK  146  A    between atoms: _349  and  _352
REMARK  147  A    between atoms: _352  and  _353
REMARK  148  A    between atoms: _353  and  _354
REMARK  149  A    between atoms: _356  and  _358
REMARK  150  A    between atoms: _358  and  _359
REMARK  151  A    between atoms: _358  and  _361
REMARK  152  A    between atoms: _361  and  _362
REMARK  153  A    between atoms: _365  and  _367
REMARK  154  A    between atoms: _367  and  _368
REMARK  155  A    between atoms: _370  and  _372
REMARK  156  A    between atoms: _372  and  _373
REMARK  157  A    between atoms: _375  and  _377
REMARK  158  A    between atoms: _377  and  _378
REMARK  159  A    between atoms: _377  and  _380
REMARK  160  A    between atoms: _380  and  _381
REMARK  161  A    between atoms: _384  and  _386
REMARK  162  A    between atoms: _386  and  _387
REMARK  163  A    between atoms: _389  and  _391
REMARK  164  A    between atoms: _391  and  _392
REMARK  165  A    between atoms: _394  and  _396
REMARK  166  A    between atoms: _396  and  _397
REMARK  167  A    between atoms: _396  and  _399
REMARK  168  A    between atoms: _399  and  _400
REMARK  169  A    between atoms: _403  and  _405
REMARK  170  A    between atoms: _405  and  _406
REMARK  171  A    between atoms: _405  and  _408
REMARK  172  A    between atoms: _411  and  _413
REMARK  173  A    between atoms: _413  and  _414
REMARK  174  A    between atoms: _413  and  _416
REMARK  175  A    between atoms: _416  and  _417
REMARK  176  A    between atoms: _421  and  _422
REMARK  177  A    between atoms: _427  and  _429
REMARK  178  A    between atoms: _429  and  _430
REMARK  179  A    between atoms: _429  and  _432
REMARK  180  A    between atoms: _432  and  _433
REMARK  181  A    between atoms: _437  and  _438
REMARK  182  A    between atoms: _443  and  _445
REMARK  183  A    between atoms: _445  and  _446
REMARK  184  A    between atoms: _445  and  _448
REMARK  185  A    between atoms: _451  and  _453
REMARK  186  A    between atoms: _453  and  _454
REMARK  187  A    between atoms: _453  and  _456
REMARK  188  A    between atoms: _456  and  _457
REMARK  189  A    between atoms: _462  and  _464
REMARK  190  A    between atoms: _464  and  _465
REMARK  191  A    between atoms: _464  and  _467
REMARK  192  A    between atoms: _467  and  _468
REMARK  193  A    between atoms: _471  and  _473
REMARK  194  A    between atoms: _473  and  _474
REMARK  195  A    between atoms: _473  and  _476
REMARK  196  A    between atoms: _476  and  _477
REMARK  197  A    between atoms: _480  and  _482
REMARK  198  A    between atoms: _482  and  _483
REMARK  199  A    between atoms: _485  and  _487
REMARK  200  A    between atoms: _487  and  _488
REMARK  201  A    between atoms: _487  and  _490
REMARK  202  A    between atoms: _490  and  _491
REMARK  203  A    between atoms: _491  and  _492
REMARK  204  A    between atoms: _492  and  _493
REMARK  205  A    between atoms: _502  and  _504
REMARK  206  A    between atoms: _504  and  _505
REMARK  207  A    between atoms: _504  and  _507
REMARK  208  A    between atoms: _507  and  _508
REMARK                            x       y       z     vdW  Elec       q    Type
REMARK                         _______ _______ _______ _____ _____    ______ ____
ROOT
ATOM      1  C   GLY A   5      13.376 -18.369   3.025  0.00  0.00    +0.243 C 
ATOM      2  N   ALA A   6      12.660 -19.112   3.871  0.00  0.00    -0.297 N 
ATOM      3  H   ALA A   6      12.618 -20.139   3.713  0.00  0.00    +0.150 HD
ATOM      4  O   GLY A   5      13.459 -17.145   3.115  0.00  0.00    -0.273 OA
ENDROOT
BRANCH   2   5
ATOM      5  CA  ALA A   6      11.931 -18.553   5.010  0.00  0.00    +0.149 C 
ATOM      6  CB  ALA A   6      10.528 -19.145   5.104  0.00  0.00    +0.031 C 
BRANCH   5   7
ATOM      7  C   ALA A   6      12.672 -18.836   6.309  0.00  0.00    +0.241 C 
ATOM      8  N   ASP A   7      12.915 -17.795   7.090  0.00  0.00    -0.297 N 
ATOM      9  H   ASP A   7      12.611 -16.847   6.788  0.00  0.00    +0.150 HD
ATOM     10  O   ALA A   6      12.996 -19.979   6.603  0.00  0.00    -0.273 OA
BRANCH   8  11
ATOM     11  CA  ASP A   7      13.600 -17.955   8.364  0.00  0.00    +0.160 C 
BRANCH  11  12
ATOM     12  C   ASP A   7      12.680 -18.661   9.347  0.00  0.00    +0.241 C 
ATOM     13  O   ASP A   7      13.127 -19.494  10.130  0.00  0.00    -0.273 OA
ATOM     14  N   ASP A   8      11.398 -18.309   9.325  0.00  0.00    -0.297 N 
ATOM     15  H   ASP A   8      11.066 -17.624   8.617  0.00  0.00    +0.150 HD
BRANCH  14  16
ATOM     16  CA  ASP A   8      10.445 -18.876  10.289  0.00  0.00    +0.160 C 
BRANCH  16  17
ATOM     17  C   ASP A   8       9.171 -19.388   9.631  0.00  0.00    +0.241 C 
ATOM     18  N   THR A   9       8.433 -20.182  10.388  0.00  0.00    -0.295 N 
ATOM     19  H   THR A   9       8.742 -20.365  11.364  0.00  0.00    +0.150 HD
ATOM     20  O   ASP A   8       8.895 -19.119   8.469  0.00  0.00    -0.273 OA
BRANCH  18  21
ATOM     21  CA  THR A   9       7.215 -20.808   9.921  0.00  0.00    +0.176 C 
BRANCH  21  22
ATOM     22  C   THR A   9       6.085 -19.805  10.032  0.00  0.00    +0.243 C 
ATOM     23  O   THR A   9       5.929 -19.136  11.059  0.00  0.00    -0.273 OA
ATOM     24  N   VAL A  10       5.278 -19.730   8.983  0.00  0.00    -0.298 N 
ATOM     25  H   VAL A  10       5.444 -20.341   8.158  0.00  0.00    +0.150 HD
BRANCH  24  26
ATOM     26  CA  VAL A  10       4.162 -18.798   8.980  0.00  0.00    +0.137 C 
BRANCH  26  27
ATOM     27  CB  VAL A  10       4.361 -17.553   8.094  0.00  0.00    +0.026 C 
ATOM     28  CG2 VAL A  10       3.293 -16.503   8.470  0.00  0.00    +0.002 C 
ATOM     29  CG1 VAL A  10       5.778 -16.994   8.218  0.00  0.00    +0.002 C 
ENDBRANCH  26  27
BRANCH  26  30
ATOM     30  C   VAL A  10       2.954 -19.540   8.442  0.00  0.00    +0.227 C 
ATOM     31  O   VAL A  10       3.009 -20.139   7.379  0.00  0.00    -0.286 OA
ENDBRANCH  26  30
ENDBRANCH  24  26
ENDBRANCH  21  22
BRANCH  21  32
ATOM     32  CB  THR A   9       6.930 -22.058  10.793  0.00  0.00    +0.137 C 
ATOM     33  CG2 THR A   9       5.561 -22.675  10.516  0.00  0.00    +0.034 C 
BRANCH  32  34
ATOM     34  OG1 THR A   9       7.956 -23.014  10.520  0.00  0.00    -0.382 OA
ATOM     35  HG1 THR A   9       8.837 -22.625  10.749  0.00  0.00    +0.210 HD
ENDBRANCH  32  34
ENDBRANCH  21  32
ENDBRANCH  18  21
ENDBRANCH  16  17
BRANCH  16  36
ATOM     36  CB  ASP A   8      10.086 -17.870  11.379  0.00  0.00    +0.143 C 
BRANCH  36  37
ATOM     37  CG  ASP A   8      11.253 -17.531  12.269  0.00  0.00    +0.367 C 
ATOM     38  OD2 ASP A   8      11.669 -18.364  13.117  0.00  0.00    -0.246 OA
ATOM     39  OD1 ASP A   8      11.733 -16.394  12.130  0.00  0.00    -0.246 OA
ENDBRANCH  36  37
ENDBRANCH  16  36
ENDBRANCH  14  16
ENDBRANCH  11  12
BRANCH  11  40
ATOM     40  CB  ASP A   7      14.017 -16.597   8.948  0.00  0.00    +0.143 C 
BRANCH  40  41
ATOM     41  CG  ASP A   7      15.110 -15.883   8.136  0.00  0.00    +0.367 C 
ATOM     42  OD2 ASP A   7      15.359 -14.708   8.475  0.00  0.00    -0.246 OA
ATOM     43  OD1 ASP A   7      15.750 -16.439   7.201  0.00  0.00    -0.246 OA
ENDBRANCH  40  41
ENDBRANCH  11  40
ENDBRANCH   8  11
ENDBRANCH   5   7
ENDBRANCH   2   5
BRANCH   1  44
ATOM     44  CA  GLY A   5      14.067 -19.093   1.885  0.00  0.00    +0.176 C 
BRANCH  44  47
ATOM     45  C   THR A   4      14.722 -21.318   2.632  0.00  0.00    +0.243 C 
ATOM     46  O   THR A   4      15.659 -20.866   3.277  0.00  0.00    -0.273 OA
ATOM     47  N   GLY A   5      13.911 -20.545   1.909  0.00  0.00    -0.295 N 
ATOM     48  H   GLY A   5      13.152 -20.985   1.351  0.00  0.00    +0.150 HD
BRANCH  45  49
ATOM     49  CA  THR A   4      14.445 -22.822   2.652  0.00  0.00    +0.176 C 
BRANCH  49  52
ATOM     50  C   ASP A   3      12.002 -22.800   2.943  0.00  0.00    +0.241 C 
ATOM     51  O   ASP A   3      12.067 -22.139   3.983  0.00  0.00    -0.273 OA
ATOM     52  N   THR A   4      13.072 -23.153   2.245  0.00  0.00    -0.295 N 
ATOM     53  H   THR A   4      12.933 -23.691   1.366  0.00  0.00    +0.150 HD
BRANCH  50  54
ATOM     54  CA  ASP A   3      10.666 -23.239   2.345  0.00  0.00    +0.160 C 
BRANCH  54  56
ATOM     55  C   LEU A   2       9.768 -25.505   2.171  0.00  0.00    +0.241 C 
ATOM     56  N   ASP A   3      10.165 -24.486   2.932  0.00  0.00    -0.297 N 
ATOM     57  H   ASP A   3      10.118 -24.577   3.967  0.00  0.00    +0.150 HD
ATOM     58  O   LEU A   2      10.036 -25.585   0.956  0.00  0.00    -0.273 OA
BRANCH  55  59
ATOM     59  CA  LEU A   2       8.935 -26.593   2.854  0.00  0.00    +0.149 C 
BRANCH  59  62
ATOM     60  C   LEU A   1       6.772 -25.537   2.557  0.00  0.00    +0.238 C 
ATOM     61  O   LEU A   1       7.017 -24.708   3.455  0.00  0.00    -0.274 OA
ATOM     62  N   LEU A   2       7.587 -26.548   2.273  0.00  0.00    -0.297 N 
ATOM     63  H   LEU A   2       7.270 -27.308   1.638  0.00  0.00    +0.150 HD
BRANCH  60  64
ATOM     64  CA  LEU A   1       5.481 -25.453   1.767  0.00  0.00    +0.145 C 
BRANCH  64  65
ATOM     65  N   LEU A   1       4.365 -25.383   2.673  0.00  0.00    -0.238 NA
ATOM     66  H   LEU A   1       4.040 -24.450   2.999  0.00  0.00    +0.142 HD
ENDBRANCH  64  65
BRANCH  64  67
ATOM     67  CB  LEU A   1       5.449 -24.176   0.925  0.00  0.00    +0.026 C 
BRANCH  67  68
ATOM     68  CG  LEU A   1       6.249 -23.975  -0.326  0.00  0.00    +0.002 C 
ATOM     69  CD2 LEU A   1       6.009 -22.536  -0.793  0.00  0.00    +0.000 C 
ATOM     70  CD1 LEU A   1       5.821 -25.000  -1.364  0.00  0.00    +0.000 C 
ENDBRANCH  67  68
ENDBRANCH  64  67
ENDBRANCH  60  64
ENDBRANCH  59  62
BRANCH  59  71
ATOM     71  CB  LEU A   2       9.563 -27.954   2.637  0.00  0.00    +0.029 C 
BRANCH  71  72
ATOM     72  CG  LEU A   2       8.952 -29.186   3.315  0.00  0.00    +0.002 C 
ATOM     73  CD2 LEU A   2       8.799 -29.050   4.834  0.00  0.00    +0.000 C 
ATOM     74  CD1 LEU A   2       9.811 -30.384   2.897  0.00  0.00    +0.000 C 
ENDBRANCH  71  72
ENDBRANCH  59  71
ENDBRANCH  55  59
ENDBRANCH  54  56
BRANCH  54  75
ATOM     75  CB  ASP A   3       9.615 -22.156   2.552  0.00  0.00    +0.143 C 
BRANCH  75  76
ATOM     76  CG  ASP A   3       9.911 -20.876   1.815  0.00  0.00    +0.367 C 
ATOM     77  OD2 ASP A   3       9.040 -19.988   1.875  0.00  0.00    -0.246 OA
ATOM     78  OD1 ASP A   3      10.983 -20.752   1.175  0.00  0.00    -0.246 OA
ENDBRANCH  75  76
ENDBRANCH  54  75
ENDBRANCH  50  54
ENDBRANCH  49  52
BRANCH  49  79
ATOM     79  CB  THR A   4      15.475 -23.554   1.780  0.00  0.00    +0.137 C 
ATOM     80  CG2 THR A   4      15.340 -25.096   1.933  0.00  0.00    +0.034 C 
BRANCH  79  81
ATOM     81  OG1 THR A   4      15.305 -23.195   0.399  0.00  0.00    -0.382 OA
ATOM     82  HG1 THR A   4      15.429 -22.218   0.295  0.00  0.00    +0.210 HD
ENDBRANCH  79  81
ENDBRANCH  49  79
ENDBRANCH  45  49
ENDBRANCH  44  47
ENDBRANCH   1  44
TORSDOF 35
REMARK  Name = ../refined-set-2016/3lzu/3lzu_pocket.pdb
REMARK  208 active torsions:
REMARK  status: ('A' for Active; 'I' for Inactive)
REMARK    1  A    between atoms: _1  and  _3
REMARK    2  A    between atoms: _3  and  _4
REMARK    3  A    between atoms: _3  and  _6
REMARK    4  A    between atoms: _6  and  _7
REMARK    5  A    between atoms: _7  and  _8
REMARK    6  A    between atoms: _8  and  _9
REMARK    7  A    between atoms: _18  and  _20
REMARK    8  A    between atoms: _20  and  _21
REMARK    9  A    between atoms: _20  and  _23
REMARK   10  A    between atoms: _23  and  _24
REMARK   11  A    between atoms: _27  and  _29
REMARK   12  A    between atoms: _29  and  _30
REMARK   13  A    between atoms: _29  and  _32
REMARK   14  A    between atoms: _32  and  _33
REMARK   15  A    between atoms: _36  and  _38
REMARK   16  A    between atoms: _38  and  _39
REMARK   17  A    between atoms: _38  and  _41
REMARK   18  A    between atoms: _41  and  _42
REMARK   19  A    between atoms: _45  and  _47
REMARK   20  A    between atoms: _47  and  _48
REMARK   21  A    between atoms: _47  and  _50
REMARK   22  A    between atoms: _50  and  _51
REMARK   23  A    between atoms: _54  and  _56
REMARK   24  A    between atoms: _56  and  _57
REMARK   25  A    between atoms: _59  and  _61
REMARK   26  A    between atoms: _61  and  _62
REMARK   27  A    between atoms: _65  and  _67
REMARK   28  A    between atoms: _67  and  _68
REMARK   29  A    between atoms: _67  and  _70
REMARK   30  A    between atoms: _70  and  _71
REMARK   31  A    between atoms: _74  and  _76
REMARK   32  A    between atoms: _76  and  _77
REMARK   33  A    between atoms: _76  and  _79
REMARK   34  A    between atoms: _79  and  _80
REMARK   35  A    between atoms: _83  and  _85
REMARK   36  A    between atoms: _85  and  _86
REMARK   37  A    between atoms: _85  and  _88
REMARK   38  A    between atoms: _88  and  _89
REMARK   39  A    between atoms: _92  and  _94
REMARK   40  A    between atoms: _94  and  _95
REMARK   41  A    between atoms: _94  and  _97
REMARK   42  A    between atoms: _100  and  _102
REMARK   43  A    between atoms: _102  and  _103
REMARK   44  A    between atoms: _102  and  _105
REMARK   45  A    between atoms: _105  and  _106
REMARK   46  A    between atoms: _106  and  _107
REMARK   47  A    between atoms: _109  and  _111
REMARK   48  A    between atoms: _111  and  _112
REMARK   49  A    between atoms: _111  and  _114
REMARK   50  A    between atoms: _114  and  _115
REMARK   51  A    between atoms: _118  and  _120
REMARK   52  A    between atoms: _120  and  _121
REMARK   53  A    between atoms: _123  and  _125
REMARK   54  A    between atoms: _125  and  _126
REMARK   55  A    between atoms: _128  and  _130
REMARK   56  A    between atoms: _130  and  _131
REMARK   57  A    between atoms: _130  and  _133
REMARK   58  A    between atoms: _133  and  _134
REMARK   59  A    between atoms: _137  and  _139
REMARK   60  A    between atoms: _139  and  _140
REMARK   61  A    between atoms: _142  and  _144
REMARK   62  A    between atoms: _144  and  _145
REMARK   63  A    between atoms: _147  and  _149
REMARK   64  A    between atoms: _149  and  _150
REMARK   65  A    between atoms: _149  and  _152
REMARK   66  A    between atoms: _152  and  _153
REMARK   67  A    between atoms: _156  and  _158
REMARK   68  A    between atoms: _158  and  _159
REMARK   69  A    between atoms: _158  and  _161
REMARK   70  A    between atoms: _161  and  _162
REMARK   71  A    between atoms: _165  and  _167
REMARK   72  A    between atoms: _167  and  _168
REMARK   73  A    between atoms: _167  and  _170
REMARK   74  A    between atoms: _170  and  _171
REMARK   75  A    between atoms: _175  and  _176
REMARK   76  A    between atoms: _181  and  _183
REMARK   77  A    between atoms: _183  and  _184
REMARK   78  A    between atoms: _183  and  _186
REMARK   79  A    between atoms: _189  and  _191
REMARK   80  A    between atoms: _191  and  _192
REMARK   81  A    between atoms: _191  and  _194
REMARK   82  A    between atoms: _194  and  _195
REMARK   83  A    between atoms: _200  and  _202
REMARK   84  A    between atoms: _202  and  _203
REMARK   85  A    between atoms: _202  and  _205
REMARK   86  A    between atoms: _205  and  _206
REMARK   87  A    between atoms: _209  and  _211
REMARK   88  A    between atoms: _211  and  _212
REMARK   89  A    between atoms: _211  and  _214
REMARK   90  A    between atoms: _214  and  _215
REMARK   91  A    between atoms: _218  and  _220
REMARK   92  A    between atoms: _220  and  _221
REMARK   93  A    between atoms: _223  and  _225
REMARK   94  A    between atoms: _225  and  _226
REMARK   95  A    between atoms: _225  and  _228
REMARK   96  A    between atoms: _228  and  _229
REMARK   97  A    between atoms: _229  and  _230
REMARK   98  A    between atoms: _230  and  _231
REMARK   99  A    between atoms: _240  and  _242
REMARK  100  A    between atoms: _242  and  _243
REMARK  101  A    between atoms: _242  and  _245
REMARK  102  A    between atoms: _245  and  _246
REMARK  103  A    between atoms: _248  and  _250
REMARK  104  A    between atoms: _250  and  _251
REMARK  105  A    between atoms: _250  and  _253
REMARK  106  A    between atoms: _253  and  _254
REMARK  107  A    between atoms: _254  and  _255
REMARK  108  A    between atoms: _255  and  _256
REMARK  109  A    between atoms: _265  and  _267
REMARK  110  A    between atoms: _267  and  _268
REMARK  111  A    between atoms: _267  and  _270
REMARK  112  A    between atoms: _270  and  _271
REMARK  113  A    between atoms: _274  and  _276
REMARK  114  A    between atoms: _276  and  _277
REMARK  115  A    between atoms: _276  and  _279
REMARK  116  A    between atoms: _279  and  _280
REMARK  117  A    between atoms: _283  and  _285
REMARK  118  A    between atoms: _285  and  _286
REMARK  119  A    between atoms: _285  and  _288
REMARK  120  A    between atoms: _288  and  _289
REMARK  121  A    between atoms: _292  and  _294
REMARK  122  A    between atoms: _294  and  _295
REMARK  123  A    between atoms: _294  and  _297
REMARK  124  A    between atoms: _297  and  _298
REMARK  125  A    between atoms: _301  and  _303
REMARK  126  A    between atoms: _303  and  _304
REMARK  127  A    between atoms: _306  and  _308
REMARK  128  A    between atoms: _308  and  _309
REMARK  129  A    between atoms: _312  and  _314
REMARK  130  A    between atoms: _314  and  _315
REMARK  131  A    between atoms: _314  and  _317
REMARK  132  A    between atoms: _317  and  _318
REMARK  133  A    between atoms: _321  and  _323
REMARK  134  A    between atoms: _323  and  _324
REMARK  135  A    between atoms: _323  and  _326
REMARK  136  A    between atoms: _326  and  _327
REMARK  137  A    between atoms: _330  and  _332
REMARK  138  A    between atoms: _332  and  _333
REMARK  139  A    between atoms: _332  and  _335
REMARK  140  A    between atoms: _335  and  _336
REMARK  141  A    between atoms: _339  and  _341
REMARK  142  A    between atoms: _341  and  _342
REMARK  143  A    between atoms: _341  and  _344
REMARK  144  A    between atoms: _347  and  _349
REMARK  145  A    between atoms: _349  and  _350
REMARK  146  A    between atoms: _349  and  _352
REMARK  147  A    between atoms: _352  and  _353
REMARK  148  A    between atoms: _353  and  _354
REMARK  149  A    between atoms: _356  and  _358
REMARK  150  A    between atoms: _358  and  _359
REMARK  151  A    between atoms: _358  and  _361
REMARK  152  A    between atoms: _361  and  _362
REMARK  153  A    between atoms: _365  and  _367
REMARK  154  A    between atoms: _367  and  _368
REMARK  155  A    between atoms: _370  and  _372
REMARK  156  A    between atoms: _372  and  _373
REMARK  157  A    between atoms: _375  and  _377
REMARK  158  A    between atoms: _377  and  _378
REMARK  159  A    between atoms: _377  and  _380
REMARK  160  A    between atoms: _380  and  _381
REMARK  161  A    between atoms: _384  and  _386
REMARK  162  A    between atoms: _386  and  _387
REMARK  163  A    between atoms: _389  and  _391
REMARK  164  A    between atoms: _391  and  _392
REMARK  165  A    between atoms: _394  and  _396
REMARK  166  A    between atoms: _396  and  _397
REMARK  167  A    between atoms: _396  and  _399
REMARK  168  A    between atoms: _399  and  _400
REMARK  169  A    between atoms: _403  and  _405
REMARK  170  A    between atoms: _405  and  _406
REMARK  171  A    between atoms: _405  and  _408
REMARK  172  A    between atoms: _411  and  _413
REMARK  173  A    between atoms: _413  and  _414
REMARK  174  A    between atoms: _413  and  _416
REMARK  175  A    between atoms: _416  and  _417
REMARK  176  A    between atoms: _421  and  _422
REMARK  177  A    between atoms: _427  and  _429
REMARK  178  A    between atoms: _429  and  _430
REMARK  179  A    between atoms: _429  and  _432
REMARK  180  A    between atoms: _432  and  _433
REMARK  181  A    between atoms: _437  and  _438
REMARK  182  A    between atoms: _443  and  _445
REMARK  183  A    between atoms: _445  and  _446
REMARK  184  A    between atoms: _445  and  _448
REMARK  185  A    between atoms: _451  and  _453
REMARK  186  A    between atoms: _453  and  _454
REMARK  187  A    between atoms: _453  and  _456
REMARK  188  A    between atoms: _456  and  _457
REMARK  189  A    between atoms: _462  and  _464
REMARK  190  A    between atoms: _464  and  _465
REMARK  191  A    between atoms: _464  and  _467
REMARK  192  A    between atoms: _467  and  _468
REMARK  193  A    between atoms: _471  and  _473
REMARK  194  A    between atoms: _473  and  _474
REMARK  195  A    between atoms: _473  and  _476
REMARK  196  A    between atoms: _476  and  _477
REMARK  197  A    between atoms: _480  and  _482
REMARK  198  A    between atoms: _482  and  _483
REMARK  199  A    between atoms: _485  and  _487
REMARK  200  A    between atoms: _487  and  _488
REMARK  201  A    between atoms: _487  and  _490
REMARK  202  A    between atoms: _490  and  _491
REMARK  203  A    between atoms: _491  and  _492
REMARK  204  A    between atoms: _492  and  _493
REMARK  205  A    between atoms: _502  and  _504
REMARK  206  A    between atoms: _504  and  _505
REMARK  207  A    between atoms: _504  and  _507
REMARK  208  A    between atoms: _507  and  _508
REMARK                            x       y       z     vdW  Elec       q    Type
REMARK                         _______ _______ _______ _____ _____    ______ ____
ROOT
ATOM      1  C   GLY A   3       9.211  -9.854   4.416  0.00  0.00    +0.243 C 
ATOM      2  O   GLY A   3      10.087 -10.681   4.650  0.00  0.00    -0.273 OA
ATOM      3  N   GLY A   4       8.589  -9.778   3.252  0.00  0.00    -0.295 N 
ATOM      4  H   GLY A   4       7.802  -9.107   3.147  0.00  0.00    +0.150 HD
ENDROOT
BRANCH   1   5
ATOM      5  CA  GLY A   3       8.783  -8.833   5.449  0.00  0.00    +0.176 C 
BRANCH   5   8
ATOM      6  C   ILE A   2       7.611  -9.446   7.468  0.00  0.00    +0.241 C 
ATOM      7  O   ILE A   2       6.528  -9.129   6.979  0.00  0.00    -0.273 OA
ATOM      8  N   GLY A   3       8.750  -9.378   6.791  0.00  0.00    -0.295 N 
ATOM      9  H   GLY A   3       9.629  -9.720   7.229  0.00  0.00    +0.150 HD
BRANCH   6  10
ATOM     10  CA  ILE A   2       7.717  -9.946   8.908  0.00  0.00    +0.148 C 
BRANCH  10  13
ATOM     11  C   MET A   1       7.089  -8.591  10.837  0.00  0.00    +0.238 C 
ATOM     12  O   MET A   1       8.250  -8.541  11.267  0.00  0.00    -0.274 OA
ATOM     13  N   ILE A   2       6.737  -9.264   9.746  0.00  0.00    -0.297 N 
ATOM     14  H   ILE A   2       5.732  -9.306   9.482  0.00  0.00    +0.150 HD
BRANCH  11  15
ATOM     15  CA  MET A   1       5.979  -7.858  11.571  0.00  0.00    +0.146 C 
BRANCH  15  16
ATOM     16  N   MET A   1       6.160  -8.104  12.993  0.00  0.00    -0.238 NA
ATOM     17  H   MET A   1       7.038  -7.786  13.452  0.00  0.00    +0.142 HD
ENDBRANCH  15  16
BRANCH  15  18
ATOM     18  CB  MET A   1       6.068  -6.365  11.262  0.00  0.00    +0.038 C 
BRANCH  18  19
ATOM     19  CG  MET A   1       4.996  -5.509  11.922  0.00  0.00    +0.060 C 
BRANCH  19  20
ATOM     20  SD  MET A   1       4.575  -4.109  10.868  0.00  0.00    -0.139 S 
ATOM     21  CE  MET A   1       3.831  -4.995   9.498  0.00  0.00    +0.069 C 
ENDBRANCH  19  20
ENDBRANCH  18  19
ENDBRANCH  15  18
ENDBRANCH  11  15
ENDBRANCH  10  13
BRANCH  10  22
ATOM     22  CB  ILE A   2       7.580 -11.486   8.970  0.00  0.00    +0.027 C 
ATOM     23  CG2 ILE A   2       7.682 -11.968  10.414  0.00  0.00    +0.002 C 
BRANCH  22  24
ATOM     24  CG1 ILE A   2       6.262 -11.959   8.357  0.00  0.00    +0.002 C 
ATOM     25  CD1 ILE A   2       6.112 -13.453   8.376  0.00  0.00    +0.000 C 
ENDBRANCH  22  24
ENDBRANCH  10  22
ENDBRANCH   6  10
ENDBRANCH   5   8
ENDBRANCH   1   5
BRANCH   3  26
ATOM     26  CA  GLY A   4       8.966 -10.597   2.118  0.00  0.00    +0.176 C 
BRANCH  26  27
ATOM     27  C   GLY A   4       8.849  -9.769   0.863  0.00  0.00    +0.243 C 
ATOM     28  O   GLY A   4       8.909  -8.539   0.909  0.00  0.00    -0.273 OA
ATOM     29  N   ILE A   5       8.673 -10.441  -0.266  0.00  0.00    -0.297 N 
ATOM     30  H   ILE A   5       8.736 -11.479  -0.253  0.00  0.00    +0.150 HD
BRANCH  29  31
ATOM     31  CA  ILE A   5       8.396  -9.767  -1.516  0.00  0.00    +0.149 C 
BRANCH  31  32
ATOM     32  C   ILE A   5       6.993  -9.152  -1.416  0.00  0.00    +0.241 C 
ATOM     33  O   ILE A   5       6.009  -9.848  -1.163  0.00  0.00    -0.273 OA
ATOM     34  N   GLY A   6       6.903  -7.846  -1.622  0.00  0.00    -0.295 N 
ATOM     35  H   GLY A   6       7.762  -7.309  -1.856  0.00  0.00    +0.150 HD
BRANCH  34  36
ATOM     36  CA  GLY A   6       5.628  -7.144  -1.529  0.00  0.00    +0.176 C 
BRANCH  36  37
ATOM     37  C   GLY A   6       5.585  -6.240  -0.317  0.00  0.00    +0.243 C 
ATOM     38  N   GLY A   7       6.460  -6.490   0.648  0.00  0.00    -0.296 N 
ATOM     39  H   GLY A   7       7.137  -7.270   0.526  0.00  0.00    +0.150 HD
ATOM     40  O   GLY A   6       4.760  -5.336  -0.258  0.00  0.00    -0.273 OA
BRANCH  38  41
ATOM     41  CA  GLY A   7       6.501  -5.706   1.872  0.00  0.00    +0.163 C 
BRANCH  41  42
ATOM     42  C   GLY A   7       6.268  -6.559   3.100  0.00  0.00    +0.229 C 
ATOM     43  O   GLY A   7       6.712  -7.707   3.164  0.00  0.00    -0.286 OA
ENDBRANCH  41  42
ENDBRANCH  38  41
ENDBRANCH  36  37
ENDBRANCH  34  36
ENDBRANCH  31  32
BRANCH  31  44
ATOM     44  CB  ILE A   5       8.469 -10.744  -2.713  0.00  0.00    +0.027 C 
ATOM     45  CG2 ILE A   5       7.638 -10.252  -3.900  0.00  0.00    +0.002 C 
BRANCH  44  46
ATOM     46  CG1 ILE A   5       9.904 -10.889  -3.217  0.00  0.00    +0.002 C 
ATOM     47  CD1 ILE A   5      10.014 -11.877  -4.344  0.00  0.00    +0.000 C 
ENDBRANCH  44  46
ENDBRANCH  31  44
ENDBRANCH  29  31
ENDBRANCH  26  27
ENDBRANCH   3  26
TORSDOF 21
REMARK  Name = ../refined-set-2016/3lzu/3lzu_pocket.pdb
REMARK  208 active torsions:
REMARK  status: ('A' for Active; 'I' for Inactive)
REMARK    1  A    between atoms: _1  and  _3
REMARK    2  A    between atoms: _3  and  _4
REMARK    3  A    between atoms: _3  and  _6
REMARK    4  A    between atoms: _6  and  _7
REMARK    5  A    between atoms: _7  and  _8
REMARK    6  A    between atoms: _8  and  _9
REMARK    7  A    between atoms: _18  and  _20
REMARK    8  A    between atoms: _20  and  _21
REMARK    9  A    between atoms: _20  and  _23
REMARK   10  A    between atoms: _23  and  _24
REMARK   11  A    between atoms: _27  and  _29
REMARK   12  A    between atoms: _29  and  _30
REMARK   13  A    between atoms: _29  and  _32
REMARK   14  A    between atoms: _32  and  _33
REMARK   15  A    between atoms: _36  and  _38
REMARK   16  A    between atoms: _38  and  _39
REMARK   17  A    between atoms: _38  and  _41
REMARK   18  A    between atoms: _41  and  _42
REMARK   19  A    between atoms: _45  and  _47
REMARK   20  A    between atoms: _47  and  _48
REMARK   21  A    between atoms: _47  and  _50
REMARK   22  A    between atoms: _50  and  _51
REMARK   23  A    between atoms: _54  and  _56
REMARK   24  A    between atoms: _56  and  _57
REMARK   25  A    between atoms: _59  and  _61
REMARK   26  A    between atoms: _61  and  _62
REMARK   27  A    between atoms: _65  and  _67
REMARK   28  A    between atoms: _67  and  _68
REMARK   29  A    between atoms: _67  and  _70
REMARK   30  A    between atoms: _70  and  _71
REMARK   31  A    between atoms: _74  and  _76
REMARK   32  A    between atoms: _76  and  _77
REMARK   33  A    between atoms: _76  and  _79
REMARK   34  A    between atoms: _79  and  _80
REMARK   35  A    between atoms: _83  and  _85
REMARK   36  A    between atoms: _85  and  _86
REMARK   37  A    between atoms: _85  and  _88
REMARK   38  A    between atoms: _88  and  _89
REMARK   39  A    between atoms: _92  and  _94
REMARK   40  A    between atoms: _94  and  _95
REMARK   41  A    between atoms: _94  and  _97
REMARK   42  A    between atoms: _100  and  _102
REMARK   43  A    between atoms: _102  and  _103
REMARK   44  A    between atoms: _102  and  _105
REMARK   45  A    between atoms: _105  and  _106
REMARK   46  A    between atoms: _106  and  _107
REMARK   47  A    between atoms: _109  and  _111
REMARK   48  A    between atoms: _111  and  _112
REMARK   49  A    between atoms: _111  and  _114
REMARK   50  A    between atoms: _114  and  _115
REMARK   51  A    between atoms: _118  and  _120
REMARK   52  A    between atoms: _120  and  _121
REMARK   53  A    between atoms: _123  and  _125
REMARK   54  A    between atoms: _125  and  _126
REMARK   55  A    between atoms: _128  and  _130
REMARK   56  A    between atoms: _130  and  _131
REMARK   57  A    between atoms: _130  and  _133
REMARK   58  A    between atoms: _133  and  _134
REMARK   59  A    between atoms: _137  and  _139
REMARK   60  A    between atoms: _139  and  _140
REMARK   61  A    between atoms: _142  and  _144
REMARK   62  A    between atoms: _144  and  _145
REMARK   63  A    between atoms: _147  and  _149
REMARK   64  A    between atoms: _149  and  _150
REMARK   65  A    between atoms: _149  and  _152
REMARK   66  A    between atoms: _152  and  _153
REMARK   67  A    between atoms: _156  and  _158
REMARK   68  A    between atoms: _158  and  _159
REMARK   69  A    between atoms: _158  and  _161
REMARK   70  A    between atoms: _161  and  _162
REMARK   71  A    between atoms: _165  and  _167
REMARK   72  A    between atoms: _167  and  _168
REMARK   73  A    between atoms: _167  and  _170
REMARK   74  A    between atoms: _170  and  _171
REMARK   75  A    between atoms: _175  and  _176
REMARK   76  A    between atoms: _181  and  _183
REMARK   77  A    between atoms: _183  and  _184
REMARK   78  A    between atoms: _183  and  _186
REMARK   79  A    between atoms: _189  and  _191
REMARK   80  A    between atoms: _191  and  _192
REMARK   81  A    between atoms: _191  and  _194
REMARK   82  A    between atoms: _194  and  _195
REMARK   83  A    between atoms: _200  and  _202
REMARK   84  A    between atoms: _202  and  _203
REMARK   85  A    between atoms: _202  and  _205
REMARK   86  A    between atoms: _205  and  _206
REMARK   87  A    between atoms: _209  and  _211
REMARK   88  A    between atoms: _211  and  _212
REMARK   89  A    between atoms: _211  and  _214
REMARK   90  A    between atoms: _214  and  _215
REMARK   91  A    between atoms: _218  and  _220
REMARK   92  A    between atoms: _220  and  _221
REMARK   93  A    between atoms: _223  and  _225
REMARK   94  A    between atoms: _225  and  _226
REMARK   95  A    between atoms: _225  and  _228
REMARK   96  A    between atoms: _228  and  _229
REMARK   97  A    between atoms: _229  and  _230
REMARK   98  A    between atoms: _230  and  _231
REMARK   99  A    between atoms: _240  and  _242
REMARK  100  A    between atoms: _242  and  _243
REMARK  101  A    between atoms: _242  and  _245
REMARK  102  A    between atoms: _245  and  _246
REMARK  103  A    between atoms: _248  and  _250
REMARK  104  A    between atoms: _250  and  _251
REMARK  105  A    between atoms: _250  and  _253
REMARK  106  A    between atoms: _253  and  _254
REMARK  107  A    between atoms: _254  and  _255
REMARK  108  A    between atoms: _255  and  _256
REMARK  109  A    between atoms: _265  and  _267
REMARK  110  A    between atoms: _267  and  _268
REMARK  111  A    between atoms: _267  and  _270
REMARK  112  A    between atoms: _270  and  _271
REMARK  113  A    between atoms: _274  and  _276
REMARK  114  A    between atoms: _276  and  _277
REMARK  115  A    between atoms: _276  and  _279
REMARK  116  A    between atoms: _279  and  _280
REMARK  117  A    between atoms: _283  and  _285
REMARK  118  A    between atoms: _285  and  _286
REMARK  119  A    between atoms: _285  and  _288
REMARK  120  A    between atoms: _288  and  _289
REMARK  121  A    between atoms: _292  and  _294
REMARK  122  A    between atoms: _294  and  _295
REMARK  123  A    between atoms: _294  and  _297
REMARK  124  A    between atoms: _297  and  _298
REMARK  125  A    between atoms: _301  and  _303
REMARK  126  A    between atoms: _303  and  _304
REMARK  127  A    between atoms: _306  and  _308
REMARK  128  A    between atoms: _308  and  _309
REMARK  129  A    between atoms: _312  and  _314
REMARK  130  A    between atoms: _314  and  _315
REMARK  131  A    between atoms: _314  and  _317
REMARK  132  A    between atoms: _317  and  _318
REMARK  133  A    between atoms: _321  and  _323
REMARK  134  A    between atoms: _323  and  _324
REMARK  135  A    between atoms: _323  and  _326
REMARK  136  A    between atoms: _326  and  _327
REMARK  137  A    between atoms: _330  and  _332
REMARK  138  A    between atoms: _332  and  _333
REMARK  139  A    between atoms: _332  and  _335
REMARK  140  A    between atoms: _335  and  _336
REMARK  141  A    between atoms: _339  and  _341
REMARK  142  A    between atoms: _341  and  _342
REMARK  143  A    between atoms: _341  and  _344
REMARK  144  A    between atoms: _347  and  _349
REMARK  145  A    between atoms: _349  and  _350
REMARK  146  A    between atoms: _349  and  _352
REMARK  147  A    between atoms: _352  and  _353
REMARK  148  A    between atoms: _353  and  _354
REMARK  149  A    between atoms: _356  and  _358
REMARK  150  A    between atoms: _358  and  _359
REMARK  151  A    between atoms: _358  and  _361
REMARK  152  A    between atoms: _361  and  _362
REMARK  153  A    between atoms: _365  and  _367
REMARK  154  A    between atoms: _367  and  _368
REMARK  155  A    between atoms: _370  and  _372
REMARK  156  A    between atoms: _372  and  _373
REMARK  157  A    between atoms: _375  and  _377
REMARK  158  A    between atoms: _377  and  _378
REMARK  159  A    between atoms: _377  and  _380
REMARK  160  A    between atoms: _380  and  _381
REMARK  161  A    between atoms: _384  and  _386
REMARK  162  A    between atoms: _386  and  _387
REMARK  163  A    between atoms: _389  and  _391
REMARK  164  A    between atoms: _391  and  _392
REMARK  165  A    between atoms: _394  and  _396
REMARK  166  A    between atoms: _396  and  _397
REMARK  167  A    between atoms: _396  and  _399
REMARK  168  A    between atoms: _399  and  _400
REMARK  169  A    between atoms: _403  and  _405
REMARK  170  A    between atoms: _405  and  _406
REMARK  171  A    between atoms: _405  and  _408
REMARK  172  A    between atoms: _411  and  _413
REMARK  173  A    between atoms: _413  and  _414
REMARK  174  A    between atoms: _413  and  _416
REMARK  175  A    between atoms: _416  and  _417
REMARK  176  A    between atoms: _421  and  _422
REMARK  177  A    between atoms: _427  and  _429
REMARK  178  A    between atoms: _429  and  _430
REMARK  179  A    between atoms: _429  and  _432
REMARK  180  A    between atoms: _432  and  _433
REMARK  181  A    between atoms: _437  and  _438
REMARK  182  A    between atoms: _443  and  _445
REMARK  183  A    between atoms: _445  and  _446
REMARK  184  A    between atoms: _445  and  _448
REMARK  185  A    between atoms: _451  and  _453
REMARK  186  A    between atoms: _453  and  _454
REMARK  187  A    between atoms: _453  and  _456
REMARK  188  A    between atoms: _456  and  _457
REMARK  189  A    between atoms: _462  and  _464
REMARK  190  A    between atoms: _464  and  _465
REMARK  191  A    between atoms: _464  and  _467
REMARK  192  A    between atoms: _467  and  _468
REMARK  193  A    between atoms: _471  and  _473
REMARK  194  A    between atoms: _473  and  _474
REMARK  195  A    between atoms: _473  and  _476
REMARK  196  A    between atoms: _476  and  _477
REMARK  197  A    between atoms: _480  and  _482
REMARK  198  A    between atoms: _482  and  _483
REMARK  199  A    between atoms: _485  and  _487
REMARK  200  A    between atoms: _487  and  _488
REMARK  201  A    between atoms: _487  and  _490
REMARK  202  A    between atoms: _490  and  _491
REMARK  203  A    between atoms: _491  and  _492
REMARK  204  A    between atoms: _492  and  _493
REMARK  205  A    between atoms: _502  and  _504
REMARK  206  A    between atoms: _504  and  _505
REMARK  207  A    between atoms: _504  and  _507
REMARK  208  A    between atoms: _507  and  _508
REMARK                            x       y       z     vdW  Elec       q    Type
REMARK                         _______ _______ _______ _____ _____    ______ ____
ROOT
ATOM      1  CA  ILE A   1       2.523  -8.387   7.193  0.00  0.00    +0.133 C 
ENDROOT
BRANCH   1   2
ATOM      2  N   ILE A   1       3.804  -8.039   6.575  0.00  0.00    -0.239 NA
ATOM      3  H   ILE A   1       4.649  -8.593   6.823  0.00  0.00    +0.142 HD
ENDBRANCH   1   2
BRANCH   1   4
ATOM      4  C   ILE A   1       2.676  -8.407   8.713  0.00  0.00    +0.224 C 
ATOM      5  O   ILE A   1       3.766  -8.644   9.237  0.00  0.00    -0.287 OA
ENDBRANCH   1   4
BRANCH   1   6
ATOM      6  CB  ILE A   1       1.949  -9.762   6.740  0.00  0.00    +0.023 C 
ATOM      7  CG2 ILE A   1       1.549  -9.740   5.267  0.00  0.00    +0.002 C 
BRANCH   6   8
ATOM      8  CG1 ILE A   1       2.924 -10.918   7.021  0.00  0.00    +0.002 C 
ATOM      9  CD1 ILE A   1       2.252 -12.308   7.073  0.00  0.00    +0.000 C 
ENDBRANCH   6   8
ENDBRANCH   1   6
TORSDOF 4
REMARK  Name = ../refined-set-2016/3lzu/3lzu_pocket.pdb
REMARK  208 active torsions:
REMARK  status: ('A' for Active; 'I' for Inactive)
REMARK    1  A    between atoms: _1  and  _3
REMARK    2  A    between atoms: _3  and  _4
REMARK    3  A    between atoms: _3  and  _6
REMARK    4  A    between atoms: _6  and  _7
REMARK    5  A    between atoms: _7  and  _8
REMARK    6  A    between atoms: _8  and  _9
REMARK    7  A    between atoms: _18  and  _20
REMARK    8  A    between atoms: _20  and  _21
REMARK    9  A    between atoms: _20  and  _23
REMARK   10  A    between atoms: _23  and  _24
REMARK   11  A    between atoms: _27  and  _29
REMARK   12  A    between atoms: _29  and  _30
REMARK   13  A    between atoms: _29  and  _32
REMARK   14  A    between atoms: _32  and  _33
REMARK   15  A    between atoms: _36  and  _38
REMARK   16  A    between atoms: _38  and  _39
REMARK   17  A    between atoms: _38  and  _41
REMARK   18  A    between atoms: _41  and  _42
REMARK   19  A    between atoms: _45  and  _47
REMARK   20  A    between atoms: _47  and  _48
REMARK   21  A    between atoms: _47  and  _50
REMARK   22  A    between atoms: _50  and  _51
REMARK   23  A    between atoms: _54  and  _56
REMARK   24  A    between atoms: _56  and  _57
REMARK   25  A    between atoms: _59  and  _61
REMARK   26  A    between atoms: _61  and  _62
REMARK   27  A    between atoms: _65  and  _67
REMARK   28  A    between atoms: _67  and  _68
REMARK   29  A    between atoms: _67  and  _70
REMARK   30  A    between atoms: _70  and  _71
REMARK   31  A    between atoms: _74  and  _76
REMARK   32  A    between atoms: _76  and  _77
REMARK   33  A    between atoms: _76  and  _79
REMARK   34  A    between atoms: _79  and  _80
REMARK   35  A    between atoms: _83  and  _85
REMARK   36  A    between atoms: _85  and  _86
REMARK   37  A    between atoms: _85  and  _88
REMARK   38  A    between atoms: _88  and  _89
REMARK   39  A    between atoms: _92  and  _94
REMARK   40  A    between atoms: _94  and  _95
REMARK   41  A    between atoms: _94  and  _97
REMARK   42  A    between atoms: _100  and  _102
REMARK   43  A    between atoms: _102  and  _103
REMARK   44  A    between atoms: _102  and  _105
REMARK   45  A    between atoms: _105  and  _106
REMARK   46  A    between atoms: _106  and  _107
REMARK   47  A    between atoms: _109  and  _111
REMARK   48  A    between atoms: _111  and  _112
REMARK   49  A    between atoms: _111  and  _114
REMARK   50  A    between atoms: _114  and  _115
REMARK   51  A    between atoms: _118  and  _120
REMARK   52  A    between atoms: _120  and  _121
REMARK   53  A    between atoms: _123  and  _125
REMARK   54  A    between atoms: _125  and  _126
REMARK   55  A    between atoms: _128  and  _130
REMARK   56  A    between atoms: _130  and  _131
REMARK   57  A    between atoms: _130  and  _133
REMARK   58  A    between atoms: _133  and  _134
REMARK   59  A    between atoms: _137  and  _139
REMARK   60  A    between atoms: _139  and  _140
REMARK   61  A    between atoms: _142  and  _144
REMARK   62  A    between atoms: _144  and  _145
REMARK   63  A    between atoms: _147  and  _149
REMARK   64  A    between atoms: _149  and  _150
REMARK   65  A    between atoms: _149  and  _152
REMARK   66  A    between atoms: _152  and  _153
REMARK   67  A    between atoms: _156  and  _158
REMARK   68  A    between atoms: _158  and  _159
REMARK   69  A    between atoms: _158  and  _161
REMARK   70  A    between atoms: _161  and  _162
REMARK   71  A    between atoms: _165  and  _167
REMARK   72  A    between atoms: _167  and  _168
REMARK   73  A    between atoms: _167  and  _170
REMARK   74  A    between atoms: _170  and  _171
REMARK   75  A    between atoms: _175  and  _176
REMARK   76  A    between atoms: _181  and  _183
REMARK   77  A    between atoms: _183  and  _184
REMARK   78  A    between atoms: _183  and  _186
REMARK   79  A    between atoms: _189  and  _191
REMARK   80  A    between atoms: _191  and  _192
REMARK   81  A    between atoms: _191  and  _194
REMARK   82  A    between atoms: _194  and  _195
REMARK   83  A    between atoms: _200  and  _202
REMARK   84  A    between atoms: _202  and  _203
REMARK   85  A    between atoms: _202  and  _205
REMARK   86  A    between atoms: _205  and  _206
REMARK   87  A    between atoms: _209  and  _211
REMARK   88  A    between atoms: _211  and  _212
REMARK   89  A    between atoms: _211  and  _214
REMARK   90  A    between atoms: _214  and  _215
REMARK   91  A    between atoms: _218  and  _220
REMARK   92  A    between atoms: _220  and  _221
REMARK   93  A    between atoms: _223  and  _225
REMARK   94  A    between atoms: _225  and  _226
REMARK   95  A    between atoms: _225  and  _228
REMARK   96  A    between atoms: _228  and  _229
REMARK   97  A    between atoms: _229  and  _230
REMARK   98  A    between atoms: _230  and  _231
REMARK   99  A    between atoms: _240  and  _242
REMARK  100  A    between atoms: _242  and  _243
REMARK  101  A    between atoms: _242  and  _245
REMARK  102  A    between atoms: _245  and  _246
REMARK  103  A    between atoms: _248  and  _250
REMARK  104  A    between atoms: _250  and  _251
REMARK  105  A    between atoms: _250  and  _253
REMARK  106  A    between atoms: _253  and  _254
REMARK  107  A    between atoms: _254  and  _255
REMARK  108  A    between atoms: _255  and  _256
REMARK  109  A    between atoms: _265  and  _267
REMARK  110  A    between atoms: _267  and  _268
REMARK  111  A    between atoms: _267  and  _270
REMARK  112  A    between atoms: _270  and  _271
REMARK  113  A    between atoms: _274  and  _276
REMARK  114  A    between atoms: _276  and  _277
REMARK  115  A    between atoms: _276  and  _279
REMARK  116  A    between atoms: _279  and  _280
REMARK  117  A    between atoms: _283  and  _285
REMARK  118  A    between atoms: _285  and  _286
REMARK  119  A    between atoms: _285  and  _288
REMARK  120  A    between atoms: _288  and  _289
REMARK  121  A    between atoms: _292  and  _294
REMARK  122  A    between atoms: _294  and  _295
REMARK  123  A    between atoms: _294  and  _297
REMARK  124  A    between atoms: _297  and  _298
REMARK  125  A    between atoms: _301  and  _303
REMARK  126  A    between atoms: _303  and  _304
REMARK  127  A    between atoms: _306  and  _308
REMARK  128  A    between atoms: _308  and  _309
REMARK  129  A    between atoms: _312  and  _314
REMARK  130  A    between atoms: _314  and  _315
REMARK  131  A    between atoms: _314  and  _317
REMARK  132  A    between atoms: _317  and  _318
REMARK  133  A    between atoms: _321  and  _323
REMARK  134  A    between atoms: _323  and  _324
REMARK  135  A    between atoms: _323  and  _326
REMARK  136  A    between atoms: _326  and  _327
REMARK  137  A    between atoms: _330  and  _332
REMARK  138  A    between atoms: _332  and  _333
REMARK  139  A    between atoms: _332  and  _335
REMARK  140  A    between atoms: _335  and  _336
REMARK  141  A    between atoms: _339  and  _341
REMARK  142  A    between atoms: _341  and  _342
REMARK  143  A    between atoms: _341  and  _344
REMARK  144  A    between atoms: _347  and  _349
REMARK  145  A    between atoms: _349  and  _350
REMARK  146  A    between atoms: _349  and  _352
REMARK  147  A    between atoms: _352  and  _353
REMARK  148  A    between atoms: _353  and  _354
REMARK  149  A    between atoms: _356  and  _358
REMARK  150  A    between atoms: _358  and  _359
REMARK  151  A    between atoms: _358  and  _361
REMARK  152  A    between atoms: _361  and  _362
REMARK  153  A    between atoms: _365  and  _367
REMARK  154  A    between atoms: _367  and  _368
REMARK  155  A    between atoms: _370  and  _372
REMARK  156  A    between atoms: _372  and  _373
REMARK  157  A    between atoms: _375  and  _377
REMARK  158  A    between atoms: _377  and  _378
REMARK  159  A    between atoms: _377  and  _380
REMARK  160  A    between atoms: _380  and  _381
REMARK  161  A    between atoms: _384  and  _386
REMARK  162  A    between atoms: _386  and  _387
REMARK  163  A    between atoms: _389  and  _391
REMARK  164  A    between atoms: _391  and  _392
REMARK  165  A    between atoms: _394  and  _396
REMARK  166  A    between atoms: _396  and  _397
REMARK  167  A    between atoms: _396  and  _399
REMARK  168  A    between atoms: _399  and  _400
REMARK  169  A    between atoms: _403  and  _405
REMARK  170  A    between atoms: _405  and  _406
REMARK  171  A    between atoms: _405  and  _408
REMARK  172  A    between atoms: _411  and  _413
REMARK  173  A    between atoms: _413  and  _414
REMARK  174  A    between atoms: _413  and  _416
REMARK  175  A    between atoms: _416  and  _417
REMARK  176  A    between atoms: _421  and  _422
REMARK  177  A    between atoms: _427  and  _429
REMARK  178  A    between atoms: _429  and  _430
REMARK  179  A    between atoms: _429  and  _432
REMARK  180  A    between atoms: _432  and  _433
REMARK  181  A    between atoms: _437  and  _438
REMARK  182  A    between atoms: _443  and  _445
REMARK  183  A    between atoms: _445  and  _446
REMARK  184  A    between atoms: _445  and  _448
REMARK  185  A    between atoms: _451  and  _453
REMARK  186  A    between atoms: _453  and  _454
REMARK  187  A    between atoms: _453  and  _456
REMARK  188  A    between atoms: _456  and  _457
REMARK  189  A    between atoms: _462  and  _464
REMARK  190  A    between atoms: _464  and  _465
REMARK  191  A    between atoms: _464  and  _467
REMARK  192  A    between atoms: _467  and  _468
REMARK  193  A    between atoms: _471  and  _473
REMARK  194  A    between atoms: _473  and  _474
REMARK  195  A    between atoms: _473  and  _476
REMARK  196  A    between atoms: _476  and  _477
REMARK  197  A    between atoms: _480  and  _482
REMARK  198  A    between atoms: _482  and  _483
REMARK  199  A    between atoms: _485  and  _487
REMARK  200  A    between atoms: _487  and  _488
REMARK  201  A    between atoms: _487  and  _490
REMARK  202  A    between atoms: _490  and  _491
REMARK  203  A    between atoms: _491  and  _492
REMARK  204  A    between atoms: _492  and  _493
REMARK  205  A    between atoms: _502  and  _504
REMARK  206  A    between atoms: _504  and  _505
REMARK  207  A    between atoms: _504  and  _507
REMARK  208  A    between atoms: _507  and  _508
REMARK                            x       y       z     vdW  Elec       q    Type
REMARK                         _______ _______ _______ _____ _____    ______ ____
ROOT
ATOM      1  CA  LEU A   1       3.892 -17.077  13.191  0.00  0.00    +0.133 C 
ENDROOT
BRANCH   1   2
ATOM      2  N   LEU A   1       4.563 -18.338  13.450  0.00  0.00    -0.239 NA
ATOM      3  H   LEU A   1       5.148 -18.764  12.703  0.00  0.00    +0.142 HD
ENDBRANCH   1   2
BRANCH   1   4
ATOM      4  C   LEU A   1       2.562 -17.339  12.502  0.00  0.00    +0.224 C 
ATOM      5  O   LEU A   1       2.483 -18.197  11.611  0.00  0.00    -0.287 OA
ENDBRANCH   1   4
BRANCH   1   6
ATOM      6  CB  LEU A   1       4.764 -16.163  12.340  0.00  0.00    +0.025 C 
BRANCH   6   7
ATOM      7  CG  LEU A   1       6.226 -16.062  12.789  0.00  0.00    +0.002 C 
ATOM      8  CD2 LEU A   1       6.249 -15.518  14.223  0.00  0.00    +0.000 C 
ATOM      9  CD1 LEU A   1       7.052 -15.240  11.793  0.00  0.00    +0.000 C 
ENDBRANCH   6   7
ENDBRANCH   1   6
TORSDOF 4
REMARK  Name = ../refined-set-2016/3lzu/3lzu_pocket.pdb
REMARK  208 active torsions:
REMARK  status: ('A' for Active; 'I' for Inactive)
REMARK    1  A    between atoms: _1  and  _3
REMARK    2  A    between atoms: _3  and  _4
REMARK    3  A    between atoms: _3  and  _6
REMARK    4  A    between atoms: _6  and  _7
REMARK    5  A    between atoms: _7  and  _8
REMARK    6  A    between atoms: _8  and  _9
REMARK    7  A    between atoms: _18  and  _20
REMARK    8  A    between atoms: _20  and  _21
REMARK    9  A    between atoms: _20  and  _23
REMARK   10  A    between atoms: _23  and  _24
REMARK   11  A    between atoms: _27  and  _29
REMARK   12  A    between atoms: _29  and  _30
REMARK   13  A    between atoms: _29  and  _32
REMARK   14  A    between atoms: _32  and  _33
REMARK   15  A    between atoms: _36  and  _38
REMARK   16  A    between atoms: _38  and  _39
REMARK   17  A    between atoms: _38  and  _41
REMARK   18  A    between atoms: _41  and  _42
REMARK   19  A    between atoms: _45  and  _47
REMARK   20  A    between atoms: _47  and  _48
REMARK   21  A    between atoms: _47  and  _50
REMARK   22  A    between atoms: _50  and  _51
REMARK   23  A    between atoms: _54  and  _56
REMARK   24  A    between atoms: _56  and  _57
REMARK   25  A    between atoms: _59  and  _61
REMARK   26  A    between atoms: _61  and  _62
REMARK   27  A    between atoms: _65  and  _67
REMARK   28  A    between atoms: _67  and  _68
REMARK   29  A    between atoms: _67  and  _70
REMARK   30  A    between atoms: _70  and  _71
REMARK   31  A    between atoms: _74  and  _76
REMARK   32  A    between atoms: _76  and  _77
REMARK   33  A    between atoms: _76  and  _79
REMARK   34  A    between atoms: _79  and  _80
REMARK   35  A    between atoms: _83  and  _85
REMARK   36  A    between atoms: _85  and  _86
REMARK   37  A    between atoms: _85  and  _88
REMARK   38  A    between atoms: _88  and  _89
REMARK   39  A    between atoms: _92  and  _94
REMARK   40  A    between atoms: _94  and  _95
REMARK   41  A    between atoms: _94  and  _97
REMARK   42  A    between atoms: _100  and  _102
REMARK   43  A    between atoms: _102  and  _103
REMARK   44  A    between atoms: _102  and  _105
REMARK   45  A    between atoms: _105  and  _106
REMARK   46  A    between atoms: _106  and  _107
REMARK   47  A    between atoms: _109  and  _111
REMARK   48  A    between atoms: _111  and  _112
REMARK   49  A    between atoms: _111  and  _114
REMARK   50  A    between atoms: _114  and  _115
REMARK   51  A    between atoms: _118  and  _120
REMARK   52  A    between atoms: _120  and  _121
REMARK   53  A    between atoms: _123  and  _125
REMARK   54  A    between atoms: _125  and  _126
REMARK   55  A    between atoms: _128  and  _130
REMARK   56  A    between atoms: _130  and  _131
REMARK   57  A    between atoms: _130  and  _133
REMARK   58  A    between atoms: _133  and  _134
REMARK   59  A    between atoms: _137  and  _139
REMARK   60  A    between atoms: _139  and  _140
REMARK   61  A    between atoms: _142  and  _144
REMARK   62  A    between atoms: _144  and  _145
REMARK   63  A    between atoms: _147  and  _149
REMARK   64  A    between atoms: _149  and  _150
REMARK   65  A    between atoms: _149  and  _152
REMARK   66  A    between atoms: _152  and  _153
REMARK   67  A    between atoms: _156  and  _158
REMARK   68  A    between atoms: _158  and  _159
REMARK   69  A    between atoms: _158  and  _161
REMARK   70  A    between atoms: _161  and  _162
REMARK   71  A    between atoms: _165  and  _167
REMARK   72  A    between atoms: _167  and  _168
REMARK   73  A    between atoms: _167  and  _170
REMARK   74  A    between atoms: _170  and  _171
REMARK   75  A    between atoms: _175  and  _176
REMARK   76  A    between atoms: _181  and  _183
REMARK   77  A    between atoms: _183  and  _184
REMARK   78  A    between atoms: _183  and  _186
REMARK   79  A    between atoms: _189  and  _191
REMARK   80  A    between atoms: _191  and  _192
REMARK   81  A    between atoms: _191  and  _194
REMARK   82  A    between atoms: _194  and  _195
REMARK   83  A    between atoms: _200  and  _202
REMARK   84  A    between atoms: _202  and  _203
REMARK   85  A    between atoms: _202  and  _205
REMARK   86  A    between atoms: _205  and  _206
REMARK   87  A    between atoms: _209  and  _211
REMARK   88  A    between atoms: _211  and  _212
REMARK   89  A    between atoms: _211  and  _214
REMARK   90  A    between atoms: _214  and  _215
REMARK   91  A    between atoms: _218  and  _220
REMARK   92  A    between atoms: _220  and  _221
REMARK   93  A    between atoms: _223  and  _225
REMARK   94  A    between atoms: _225  and  _226
REMARK   95  A    between atoms: _225  and  _228
REMARK   96  A    between atoms: _228  and  _229
REMARK   97  A    between atoms: _229  and  _230
REMARK   98  A    between atoms: _230  and  _231
REMARK   99  A    between atoms: _240  and  _242
REMARK  100  A    between atoms: _242  and  _243
REMARK  101  A    between atoms: _242  and  _245
REMARK  102  A    between atoms: _245  and  _246
REMARK  103  A    between atoms: _248  and  _250
REMARK  104  A    between atoms: _250  and  _251
REMARK  105  A    between atoms: _250  and  _253
REMARK  106  A    between atoms: _253  and  _254
REMARK  107  A    between atoms: _254  and  _255
REMARK  108  A    between atoms: _255  and  _256
REMARK  109  A    between atoms: _265  and  _267
REMARK  110  A    between atoms: _267  and  _268
REMARK  111  A    between atoms: _267  and  _270
REMARK  112  A    between atoms: _270  and  _271
REMARK  113  A    between atoms: _274  and  _276
REMARK  114  A    between atoms: _276  and  _277
REMARK  115  A    between atoms: _276  and  _279
REMARK  116  A    between atoms: _279  and  _280
REMARK  117  A    between atoms: _283  and  _285
REMARK  118  A    between atoms: _285  and  _286
REMARK  119  A    between atoms: _285  and  _288
REMARK  120  A    between atoms: _288  and  _289
REMARK  121  A    between atoms: _292  and  _294
REMARK  122  A    between atoms: _294  and  _295
REMARK  123  A    between atoms: _294  and  _297
REMARK  124  A    between atoms: _297  and  _298
REMARK  125  A    between atoms: _301  and  _303
REMARK  126  A    between atoms: _303  and  _304
REMARK  127  A    between atoms: _306  and  _308
REMARK  128  A    between atoms: _308  and  _309
REMARK  129  A    between atoms: _312  and  _314
REMARK  130  A    between atoms: _314  and  _315
REMARK  131  A    between atoms: _314  and  _317
REMARK  132  A    between atoms: _317  and  _318
REMARK  133  A    between atoms: _321  and  _323
REMARK  134  A    between atoms: _323  and  _324
REMARK  135  A    between atoms: _323  and  _326
REMARK  136  A    between atoms: _326  and  _327
REMARK  137  A    between atoms: _330  and  _332
REMARK  138  A    between atoms: _332  and  _333
REMARK  139  A    between atoms: _332  and  _335
REMARK  140  A    between atoms: _335  and  _336
REMARK  141  A    between atoms: _339  and  _341
REMARK  142  A    between atoms: _341  and  _342
REMARK  143  A    between atoms: _341  and  _344
REMARK  144  A    between atoms: _347  and  _349
REMARK  145  A    between atoms: _349  and  _350
REMARK  146  A    between atoms: _349  and  _352
REMARK  147  A    between atoms: _352  and  _353
REMARK  148  A    between atoms: _353  and  _354
REMARK  149  A    between atoms: _356  and  _358
REMARK  150  A    between atoms: _358  and  _359
REMARK  151  A    between atoms: _358  and  _361
REMARK  152  A    between atoms: _361  and  _362
REMARK  153  A    between atoms: _365  and  _367
REMARK  154  A    between atoms: _367  and  _368
REMARK  155  A    between atoms: _370  and  _372
REMARK  156  A    between atoms: _372  and  _373
REMARK  157  A    between atoms: _375  and  _377
REMARK  158  A    between atoms: _377  and  _378
REMARK  159  A    between atoms: _377  and  _380
REMARK  160  A    between atoms: _380  and  _381
REMARK  161  A    between atoms: _384  and  _386
REMARK  162  A    between atoms: _386  and  _387
REMARK  163  A    between atoms: _389  and  _391
REMARK  164  A    between atoms: _391  and  _392
REMARK  165  A    between atoms: _394  and  _396
REMARK  166  A    between atoms: _396  and  _397
REMARK  167  A    between atoms: _396  and  _399
REMARK  168  A    between atoms: _399  and  _400
REMARK  169  A    between atoms: _403  and  _405
REMARK  170  A    between atoms: _405  and  _406
REMARK  171  A    between atoms: _405  and  _408
REMARK  172  A    between atoms: _411  and  _413
REMARK  173  A    between atoms: _413  and  _414
REMARK  174  A    between atoms: _413  and  _416
REMARK  175  A    between atoms: _416  and  _417
REMARK  176  A    between atoms: _421  and  _422
REMARK  177  A    between atoms: _427  and  _429
REMARK  178  A    between atoms: _429  and  _430
REMARK  179  A    between atoms: _429  and  _432
REMARK  180  A    between atoms: _432  and  _433
REMARK  181  A    between atoms: _437  and  _438
REMARK  182  A    between atoms: _443  and  _445
REMARK  183  A    between atoms: _445  and  _446
REMARK  184  A    between atoms: _445  and  _448
REMARK  185  A    between atoms: _451  and  _453
REMARK  186  A    between atoms: _453  and  _454
REMARK  187  A    between atoms: _453  and  _456
REMARK  188  A    between atoms: _456  and  _457
REMARK  189  A    between atoms: _462  and  _464
REMARK  190  A    between atoms: _464  and  _465
REMARK  191  A    between atoms: _464  and  _467
REMARK  192  A    between atoms: _467  and  _468
REMARK  193  A    between atoms: _471  and  _473
REMARK  194  A    between atoms: _473  and  _474
REMARK  195  A    between atoms: _473  and  _476
REMARK  196  A    between atoms: _476  and  _477
REMARK  197  A    between atoms: _480  and  _482
REMARK  198  A    between atoms: _482  and  _483
REMARK  199  A    between atoms: _485  and  _487
REMARK  200  A    between atoms: _487  and  _488
REMARK  201  A    between atoms: _487  and  _490
REMARK  202  A    between atoms: _490  and  _491
REMARK  203  A    between atoms: _491  and  _492
REMARK  204  A    between atoms: _492  and  _493
REMARK  205  A    between atoms: _502  and  _504
REMARK  206  A    between atoms: _504  and  _505
REMARK  207  A    between atoms: _504  and  _507
REMARK  208  A    between atoms: _507  and  _508
REMARK                            x       y       z     vdW  Elec       q    Type
REMARK                         _______ _______ _______ _____ _____    ______ ____
ROOT
ATOM      1  CA  ILE A   5       5.267 -22.040   4.918  0.00  0.00    +0.149 C 
ENDROOT
BRANCH   1   3
ATOM      2  C   ASN A   4       2.911 -22.203   4.338  0.00  0.00    +0.241 C 
ATOM      3  N   ILE A   5       3.856 -21.770   5.168  0.00  0.00    -0.297 N 
ATOM      4  H   ILE A   5       3.583 -21.228   6.012  0.00  0.00    +0.150 HD
ATOM      5  O   ASN A   4       3.147 -22.970   3.397  0.00  0.00    -0.273 OA
BRANCH   2   6
ATOM      6  CA  ASN A   4       1.483 -21.768   4.628  0.00  0.00    +0.158 C 
BRANCH   6   8
ATOM      7  C   VAL A   3       1.264 -20.181   2.779  0.00  0.00    +0.241 C 
ATOM      8  N   ASN A   4       0.837 -21.281   3.399  0.00  0.00    -0.297 N 
ATOM      9  H   ASN A   4       0.030 -21.806   3.006  0.00  0.00    +0.150 HD
ATOM     10  O   VAL A   3       2.119 -19.450   3.259  0.00  0.00    -0.273 OA
BRANCH   7  11
ATOM     11  CA  VAL A   3       0.639 -19.796   1.440  0.00  0.00    +0.149 C 
BRANCH  11  13
ATOM     12  C   PRO A   2      -0.728 -17.802   0.897  0.00  0.00    +0.241 C 
ATOM     13  N   VAL A   3       0.323 -18.358   1.499  0.00  0.00    -0.297 N 
ATOM     14  H   VAL A   3       0.958 -17.740   2.043  0.00  0.00    +0.150 HD
ATOM     15  O   PRO A   2      -1.586 -18.452   0.296  0.00  0.00    -0.273 OA
BRANCH  12  22
ATOM     16  C   THR A   1      -0.423 -15.822   3.342  0.00  0.00    +0.244 C 
ATOM     17  O   THR A   1      -1.425 -16.452   3.672  0.00  0.00    -0.273 OA
ATOM     18  N   PRO A   2      -0.088 -15.631   2.059  0.00  0.00    -0.272 N 
ATOM     19  CD  PRO A   2       0.958 -14.753   1.508  0.00  0.00    +0.094 C 
ATOM     20  CG  PRO A   2       0.973 -15.113   0.060  0.00  0.00    +0.024 C 
ATOM     21  CB  PRO A   2      -0.334 -15.617  -0.278  0.00  0.00    +0.031 C 
ATOM     22  CA  PRO A   2      -0.868 -16.277   0.993  0.00  0.00    +0.152 C 
BRANCH  16  23
ATOM     23  CA  THR A   1       0.465 -15.190   4.400  0.00  0.00    +0.172 C 
BRANCH  23  24
ATOM     24  N   THR A   1      -0.341 -14.627   5.478  0.00  0.00    -0.236 NA
ATOM     25  H   THR A   1      -0.306 -15.072   6.417  0.00  0.00    +0.142 HD
ENDBRANCH  23  24
BRANCH  23  26
ATOM     26  CB  THR A   1       1.473 -16.267   4.909  0.00  0.00    +0.135 C 
ATOM     27  CG2 THR A   1       0.790 -17.399   5.657  0.00  0.00    +0.034 C 
BRANCH  26  28
ATOM     28  OG1 THR A   1       2.221 -16.792   3.804  0.00  0.00    -0.383 OA
ATOM     29  HG1 THR A   1       2.858 -17.474   4.133  0.00  0.00    +0.210 HD
ENDBRANCH  26  28
ENDBRANCH  23  26
ENDBRANCH  16  23
ENDBRANCH  12  22
ENDBRANCH  11  13
BRANCH  11  30
ATOM     30  CB  VAL A   3       1.682 -20.102   0.323  0.00  0.00    +0.027 C 
ATOM     31  CG2 VAL A   3       2.029 -21.597   0.275  0.00  0.00    +0.002 C 
ATOM     32  CG1 VAL A   3       1.221 -19.612  -1.073  0.00  0.00    +0.002 C 
ENDBRANCH  11  30
ENDBRANCH   7  11
ENDBRANCH   6   8
BRANCH   6  33
ATOM     33  CB  ASN A   4       0.778 -22.990   5.205  0.00  0.00    +0.114 C 
BRANCH  33  34
ATOM     34  CG  ASN A   4      -0.663 -22.733   5.586  0.00  0.00    +0.222 C 
ATOM     35  ND2 ASN A   4      -0.934 -21.511   6.001  0.00  0.00    -0.329 N 
ATOM     36 HD21 ASN A   4      -1.900 -21.264   6.296  0.00  0.00    +0.145 HD
ATOM     37 HD22 ASN A   4      -0.182 -20.794   6.033  0.00  0.00    +0.145 HD
ATOM     38  OD1 ASN A   4      -1.519 -23.635   5.525  0.00  0.00    -0.275 OA
ENDBRANCH  33  34
ENDBRANCH   6  33
ENDBRANCH   2   6
ENDBRANCH   1   3
BRANCH   1  39
ATOM     39  C   ILE A   5       5.961 -22.575   6.171  0.00  0.00    +0.241 C 
ATOM     40  O   ILE A   5       5.727 -22.090   7.288  0.00  0.00    -0.273 OA
ATOM     41  N   ILE A   6       6.760 -23.617   5.979  0.00  0.00    -0.297 N 
ATOM     42  H   ILE A   6       6.776 -24.059   5.038  0.00  0.00    +0.150 HD
BRANCH  41  43
ATOM     43  CA  ILE A   6       7.618 -24.175   7.021  0.00  0.00    +0.149 C 
BRANCH  43  44
ATOM     44  C   ILE A   6       9.010 -23.603   6.791  0.00  0.00    +0.241 C 
ATOM     45  N   GLY A   7       9.478 -22.832   7.771  0.00  0.00    -0.295 N 
ATOM     46  H   GLY A   7       8.909 -22.731   8.636  0.00  0.00    +0.150 HD
ATOM     47  O   ILE A   6       9.640 -23.845   5.751  0.00  0.00    -0.273 OA
BRANCH  45  48
ATOM     48  CA  GLY A   7      10.733 -22.131   7.691  0.00  0.00    +0.176 C 
BRANCH  48  49
ATOM     49  C   GLY A   7      11.892 -22.858   8.337  0.00  0.00    +0.243 C 
ATOM     50  O   GLY A   7      11.733 -23.906   8.968  0.00  0.00    -0.273 OA
ATOM     51  N   ARG A   8      13.059 -22.240   8.217  0.00  0.00    -0.297 N 
ATOM     52  H   ARG A   8      13.088 -21.269   7.845  0.00  0.00    +0.150 HD
BRANCH  51  53
ATOM     53  CA  ARG A   8      14.302 -22.900   8.598  0.00  0.00    +0.149 C 
BRANCH  53  54
ATOM     54  C   ARG A   8      14.342 -23.300  10.075  0.00  0.00    +0.241 C 
ATOM     55  N   SER A   9      13.736 -22.507  10.950  0.00  0.00    -0.296 N 
ATOM     56  H   SER A   9      13.227 -21.665  10.612  0.00  0.00    +0.150 HD
ATOM     57  O   ARG A   8      14.921 -24.332  10.403  0.00  0.00    -0.273 OA
BRANCH  55  58
ATOM     58  CA  SER A   9      13.774 -22.801  12.385  0.00  0.00    +0.166 C 
BRANCH  58  59
ATOM     59  CB  SER A   9      13.097 -24.124  12.723  0.00  0.00    +0.229 C 
ATOM     60  OG  SER A   9      13.399 -24.723  13.754  0.00  0.00    -0.286 OA
ENDBRANCH  58  59
BRANCH  58  61
ATOM     61  C   SER A   9      13.163 -21.648  13.188  0.00  0.00    +0.165 C 
BRANCH  61  62
ATOM     62  O   SER A   9      11.917 -21.255  12.641  0.00  0.00    -0.380 OA
ATOM     63  H   SER A   9      11.292 -22.023  12.660  0.00  0.00    +0.211 HD
ENDBRANCH  61  62
ENDBRANCH  58  61
ENDBRANCH  55  58
ENDBRANCH  53  54
BRANCH  53  64
ATOM     64  CB  ARG A   8      15.497 -22.030   8.235  0.00  0.00    +0.033 C 
BRANCH  64  65
ATOM     65  CG  ARG A   8      15.813 -21.959   6.722  0.00  0.00    +0.045 C 
BRANCH  65  66
ATOM     66  CD  ARG A   8      17.160 -21.284   6.437  0.00  0.00    +0.174 C 
BRANCH  66  67
ATOM     67  NE  ARG A   8      17.240 -19.900   6.910  0.00  0.00    -0.265 N 
ATOM     68  CZ  ARG A   8      17.796 -19.515   8.057  0.00  0.00    +0.342 C 
ATOM     69  NH2 ARG A   8      18.370 -20.378   8.891  0.00  0.00    -0.292 N 
ATOM     70 HH21 ARG A   8      18.794 -20.040   9.778  0.00  0.00    +0.255 HD
ATOM     71 HH22 ARG A   8      18.395 -21.391   8.656  0.00  0.00    +0.255 HD
ATOM     72  NH1 ARG A   8      17.798 -18.230   8.378  0.00  0.00    -0.292 N 
ATOM     73 HH11 ARG A   8      18.229 -17.918   9.271  0.00  0.00    +0.255 HD
ATOM     74 HH12 ARG A   8      17.368 -17.533   7.737  0.00  0.00    +0.255 HD
ATOM     75  HE  ARG A   8      16.831 -19.161   6.303  0.00  0.00    +0.259 HD
ENDBRANCH  66  67
ENDBRANCH  65  66
ENDBRANCH  64  65
ENDBRANCH  53  64
ENDBRANCH  51  53
ENDBRANCH  48  49
ENDBRANCH  45  48
ENDBRANCH  43  44
BRANCH  43  76
ATOM     76  CB  ILE A   6       7.691 -25.715   7.008  0.00  0.00    +0.027 C 
ATOM     77  CG2 ILE A   6       8.570 -26.221   8.203  0.00  0.00    +0.002 C 
BRANCH  76  78
ATOM     78  CG1 ILE A   6       6.295 -26.338   7.060  0.00  0.00    +0.002 C 
ATOM     79  CD1 ILE A   6       5.356 -25.842   8.161  0.00  0.00    +0.000 C 
ENDBRANCH  76  78
ENDBRANCH  43  76
ENDBRANCH  41  43
ENDBRANCH   1  39
BRANCH   1  80
ATOM     80  CB  ILE A   5       5.995 -20.775   4.348  0.00  0.00    +0.027 C 
ATOM     81  CG2 ILE A   5       5.392 -20.312   2.996  0.00  0.00    +0.002 C 
BRANCH  80  82
ATOM     82  CG1 ILE A   5       5.982 -19.617   5.325  0.00  0.00    +0.002 C 
ATOM     83  CD1 ILE A   5       6.523 -18.321   4.714  0.00  0.00    +0.000 C 
ENDBRANCH  80  82
ENDBRANCH   1  80
TORSDOF 32
REMARK  Name = ../refined-set-2016/3lzu/3lzu_pocket.pdb
REMARK  208 active torsions:
REMARK  status: ('A' for Active; 'I' for Inactive)
REMARK    1  A    between atoms: _1  and  _3
REMARK    2  A    between atoms: _3  and  _4
REMARK    3  A    between atoms: _3  and  _6
REMARK    4  A    between atoms: _6  and  _7
REMARK    5  A    between atoms: _7  and  _8
REMARK    6  A    between atoms: _8  and  _9
REMARK    7  A    between atoms: _18  and  _20
REMARK    8  A    between atoms: _20  and  _21
REMARK    9  A    between atoms: _20  and  _23
REMARK   10  A    between atoms: _23  and  _24
REMARK   11  A    between atoms: _27  and  _29
REMARK   12  A    between atoms: _29  and  _30
REMARK   13  A    between atoms: _29  and  _32
REMARK   14  A    between atoms: _32  and  _33
REMARK   15  A    between atoms: _36  and  _38
REMARK   16  A    between atoms: _38  and  _39
REMARK   17  A    between atoms: _38  and  _41
REMARK   18  A    between atoms: _41  and  _42
REMARK   19  A    between atoms: _45  and  _47
REMARK   20  A    between atoms: _47  and  _48
REMARK   21  A    between atoms: _47  and  _50
REMARK   22  A    between atoms: _50  and  _51
REMARK   23  A    between atoms: _54  and  _56
REMARK   24  A    between atoms: _56  and  _57
REMARK   25  A    between atoms: _59  and  _61
REMARK   26  A    between atoms: _61  and  _62
REMARK   27  A    between atoms: _65  and  _67
REMARK   28  A    between atoms: _67  and  _68
REMARK   29  A    between atoms: _67  and  _70
REMARK   30  A    between atoms: _70  and  _71
REMARK   31  A    between atoms: _74  and  _76
REMARK   32  A    between atoms: _76  and  _77
REMARK   33  A    between atoms: _76  and  _79
REMARK   34  A    between atoms: _79  and  _80
REMARK   35  A    between atoms: _83  and  _85
REMARK   36  A    between atoms: _85  and  _86
REMARK   37  A    between atoms: _85  and  _88
REMARK   38  A    between atoms: _88  and  _89
REMARK   39  A    between atoms: _92  and  _94
REMARK   40  A    between atoms: _94  and  _95
REMARK   41  A    between atoms: _94  and  _97
REMARK   42  A    between atoms: _100  and  _102
REMARK   43  A    between atoms: _102  and  _103
REMARK   44  A    between atoms: _102  and  _105
REMARK   45  A    between atoms: _105  and  _106
REMARK   46  A    between atoms: _106  and  _107
REMARK   47  A    between atoms: _109  and  _111
REMARK   48  A    between atoms: _111  and  _112
REMARK   49  A    between atoms: _111  and  _114
REMARK   50  A    between atoms: _114  and  _115
REMARK   51  A    between atoms: _118  and  _120
REMARK   52  A    between atoms: _120  and  _121
REMARK   53  A    between atoms: _123  and  _125
REMARK   54  A    between atoms: _125  and  _126
REMARK   55  A    between atoms: _128  and  _130
REMARK   56  A    between atoms: _130  and  _131
REMARK   57  A    between atoms: _130  and  _133
REMARK   58  A    between atoms: _133  and  _134
REMARK   59  A    between atoms: _137  and  _139
REMARK   60  A    between atoms: _139  and  _140
REMARK   61  A    between atoms: _142  and  _144
REMARK   62  A    between atoms: _144  and  _145
REMARK   63  A    between atoms: _147  and  _149
REMARK   64  A    between atoms: _149  and  _150
REMARK   65  A    between atoms: _149  and  _152
REMARK   66  A    between atoms: _152  and  _153
REMARK   67  A    between atoms: _156  and  _158
REMARK   68  A    between atoms: _158  and  _159
REMARK   69  A    between atoms: _158  and  _161
REMARK   70  A    between atoms: _161  and  _162
REMARK   71  A    between atoms: _165  and  _167
REMARK   72  A    between atoms: _167  and  _168
REMARK   73  A    between atoms: _167  and  _170
REMARK   74  A    between atoms: _170  and  _171
REMARK   75  A    between atoms: _175  and  _176
REMARK   76  A    between atoms: _181  and  _183
REMARK   77  A    between atoms: _183  and  _184
REMARK   78  A    between atoms: _183  and  _186
REMARK   79  A    between atoms: _189  and  _191
REMARK   80  A    between atoms: _191  and  _192
REMARK   81  A    between atoms: _191  and  _194
REMARK   82  A    between atoms: _194  and  _195
REMARK   83  A    between atoms: _200  and  _202
REMARK   84  A    between atoms: _202  and  _203
REMARK   85  A    between atoms: _202  and  _205
REMARK   86  A    between atoms: _205  and  _206
REMARK   87  A    between atoms: _209  and  _211
REMARK   88  A    between atoms: _211  and  _212
REMARK   89  A    between atoms: _211  and  _214
REMARK   90  A    between atoms: _214  and  _215
REMARK   91  A    between atoms: _218  and  _220
REMARK   92  A    between atoms: _220  and  _221
REMARK   93  A    between atoms: _223  and  _225
REMARK   94  A    between atoms: _225  and  _226
REMARK   95  A    between atoms: _225  and  _228
REMARK   96  A    between atoms: _228  and  _229
REMARK   97  A    between atoms: _229  and  _230
REMARK   98  A    between atoms: _230  and  _231
REMARK   99  A    between atoms: _240  and  _242
REMARK  100  A    between atoms: _242  and  _243
REMARK  101  A    between atoms: _242  and  _245
REMARK  102  A    between atoms: _245  and  _246
REMARK  103  A    between atoms: _248  and  _250
REMARK  104  A    between atoms: _250  and  _251
REMARK  105  A    between atoms: _250  and  _253
REMARK  106  A    between atoms: _253  and  _254
REMARK  107  A    between atoms: _254  and  _255
REMARK  108  A    between atoms: _255  and  _256
REMARK  109  A    between atoms: _265  and  _267
REMARK  110  A    between atoms: _267  and  _268
REMARK  111  A    between atoms: _267  and  _270
REMARK  112  A    between atoms: _270  and  _271
REMARK  113  A    between atoms: _274  and  _276
REMARK  114  A    between atoms: _276  and  _277
REMARK  115  A    between atoms: _276  and  _279
REMARK  116  A    between atoms: _279  and  _280
REMARK  117  A    between atoms: _283  and  _285
REMARK  118  A    between atoms: _285  and  _286
REMARK  119  A    between atoms: _285  and  _288
REMARK  120  A    between atoms: _288  and  _289
REMARK  121  A    between atoms: _292  and  _294
REMARK  122  A    between atoms: _294  and  _295
REMARK  123  A    between atoms: _294  and  _297
REMARK  124  A    between atoms: _297  and  _298
REMARK  125  A    between atoms: _301  and  _303
REMARK  126  A    between atoms: _303  and  _304
REMARK  127  A    between atoms: _306  and  _308
REMARK  128  A    between atoms: _308  and  _309
REMARK  129  A    between atoms: _312  and  _314
REMARK  130  A    between atoms: _314  and  _315
REMARK  131  A    between atoms: _314  and  _317
REMARK  132  A    between atoms: _317  and  _318
REMARK  133  A    between atoms: _321  and  _323
REMARK  134  A    between atoms: _323  and  _324
REMARK  135  A    between atoms: _323  and  _326
REMARK  136  A    between atoms: _326  and  _327
REMARK  137  A    between atoms: _330  and  _332
REMARK  138  A    between atoms: _332  and  _333
REMARK  139  A    between atoms: _332  and  _335
REMARK  140  A    between atoms: _335  and  _336
REMARK  141  A    between atoms: _339  and  _341
REMARK  142  A    between atoms: _341  and  _342
REMARK  143  A    between atoms: _341  and  _344
REMARK  144  A    between atoms: _347  and  _349
REMARK  145  A    between atoms: _349  and  _350
REMARK  146  A    between atoms: _349  and  _352
REMARK  147  A    between atoms: _352  and  _353
REMARK  148  A    between atoms: _353  and  _354
REMARK  149  A    between atoms: _356  and  _358
REMARK  150  A    between atoms: _358  and  _359
REMARK  151  A    between atoms: _358  and  _361
REMARK  152  A    between atoms: _361  and  _362
REMARK  153  A    between atoms: _365  and  _367
REMARK  154  A    between atoms: _367  and  _368
REMARK  155  A    between atoms: _370  and  _372
REMARK  156  A    between atoms: _372  and  _373
REMARK  157  A    between atoms: _375  and  _377
REMARK  158  A    between atoms: _377  and  _378
REMARK  159  A    between atoms: _377  and  _380
REMARK  160  A    between atoms: _380  and  _381
REMARK  161  A    between atoms: _384  and  _386
REMARK  162  A    between atoms: _386  and  _387
REMARK  163  A    between atoms: _389  and  _391
REMARK  164  A    between atoms: _391  and  _392
REMARK  165  A    between atoms: _394  and  _396
REMARK  166  A    between atoms: _396  and  _397
REMARK  167  A    between atoms: _396  and  _399
REMARK  168  A    between atoms: _399  and  _400
REMARK  169  A    between atoms: _403  and  _405
REMARK  170  A    between atoms: _405  and  _406
REMARK  171  A    between atoms: _405  and  _408
REMARK  172  A    between atoms: _411  and  _413
REMARK  173  A    between atoms: _413  and  _414
REMARK  174  A    between atoms: _413  and  _416
REMARK  175  A    between atoms: _416  and  _417
REMARK  176  A    between atoms: _421  and  _422
REMARK  177  A    between atoms: _427  and  _429
REMARK  178  A    between atoms: _429  and  _430
REMARK  179  A    between atoms: _429  and  _432
REMARK  180  A    between atoms: _432  and  _433
REMARK  181  A    between atoms: _437  and  _438
REMARK  182  A    between atoms: _443  and  _445
REMARK  183  A    between atoms: _445  and  _446
REMARK  184  A    between atoms: _445  and  _448
REMARK  185  A    between atoms: _451  and  _453
REMARK  186  A    between atoms: _453  and  _454
REMARK  187  A    between atoms: _453  and  _456
REMARK  188  A    between atoms: _456  and  _457
REMARK  189  A    between atoms: _462  and  _464
REMARK  190  A    between atoms: _464  and  _465
REMARK  191  A    between atoms: _464  and  _467
REMARK  192  A    between atoms: _467  and  _468
REMARK  193  A    between atoms: _471  and  _473
REMARK  194  A    between atoms: _473  and  _474
REMARK  195  A    between atoms: _473  and  _476
REMARK  196  A    between atoms: _476  and  _477
REMARK  197  A    between atoms: _480  and  _482
REMARK  198  A    between atoms: _482  and  _483
REMARK  199  A    between atoms: _485  and  _487
REMARK  200  A    between atoms: _487  and  _488
REMARK  201  A    between atoms: _487  and  _490
REMARK  202  A    between atoms: _490  and  _491
REMARK  203  A    between atoms: _491  and  _492
REMARK  204  A    between atoms: _492  and  _493
REMARK  205  A    between atoms: _502  and  _504
REMARK  206  A    between atoms: _504  and  _505
REMARK  207  A    between atoms: _504  and  _507
REMARK  208  A    between atoms: _507  and  _508
REMARK                            x       y       z     vdW  Elec       q    Type
REMARK                         _______ _______ _______ _____ _____    ______ ____
ROOT
ATOM      1  NE  ARG A   1      20.806 -14.587   5.596  0.00  0.00    -0.265 N 
ATOM      2  HE  ARG A   1      21.324 -15.095   6.341  0.00  0.00    +0.259 HD
ATOM      3  CZ  ARG A   1      21.376 -13.494   5.094  0.00  0.00    +0.342 C 
ATOM      4  NH2 ARG A   1      22.548 -13.096   5.575  0.00  0.00    -0.292 N 
ATOM      5 HH21 ARG A   1      23.009 -13.637   6.335  0.00  0.00    +0.255 HD
ATOM      6 HH22 ARG A   1      23.005 -12.244   5.192  0.00  0.00    +0.255 HD
ATOM      7  NH1 ARG A   1      20.792 -12.795   4.125  0.00  0.00    -0.292 N 
ATOM      8 HH11 ARG A   1      21.254 -11.944   3.747  0.00  0.00    +0.255 HD
ATOM      9 HH12 ARG A   1      19.873 -13.100   3.746  0.00  0.00    +0.255 HD
ENDROOT
BRANCH   1  10
ATOM     10  CD  ARG A   1      19.514 -15.133   5.188  0.00  0.00    +0.174 C 
BRANCH  10  11
ATOM     11  CG  ARG A   1      19.392 -16.577   5.610  0.00  0.00    +0.045 C 
BRANCH  11  12
ATOM     12  CB  ARG A   1      20.431 -17.371   4.875  0.00  0.00    +0.029 C 
BRANCH  12  13
ATOM     13  CA  ARG A   1      20.513 -18.846   5.248  0.00  0.00    +0.133 C 
BRANCH  13  14
ATOM     14  N   ARG A   1      21.115 -19.025   6.580  0.00  0.00    -0.239 NA
ATOM     15  H   ARG A   1      21.382 -18.190   7.139  0.00  0.00    +0.142 HD
ENDBRANCH  13  14
BRANCH  13  16
ATOM     16  C   ARG A   1      21.360 -19.545   4.191  0.00  0.00    +0.224 C 
ATOM     17  O   ARG A   1      22.586 -19.426   4.225  0.00  0.00    -0.287 OA
ENDBRANCH  13  16
ENDBRANCH  12  13
ENDBRANCH  11  12
ENDBRANCH  10  11
ENDBRANCH   1  10
TORSDOF 6
REMARK  Name = ../refined-set-2016/3lzu/3lzu_pocket.pdb
REMARK  208 active torsions:
REMARK  status: ('A' for Active; 'I' for Inactive)
REMARK    1  A    between atoms: _1  and  _3
REMARK    2  A    between atoms: _3  and  _4
REMARK    3  A    between atoms: _3  and  _6
REMARK    4  A    between atoms: _6  and  _7
REMARK    5  A    between atoms: _7  and  _8
REMARK    6  A    between atoms: _8  and  _9
REMARK    7  A    between atoms: _18  and  _20
REMARK    8  A    between atoms: _20  and  _21
REMARK    9  A    between atoms: _20  and  _23
REMARK   10  A    between atoms: _23  and  _24
REMARK   11  A    between atoms: _27  and  _29
REMARK   12  A    between atoms: _29  and  _30
REMARK   13  A    between atoms: _29  and  _32
REMARK   14  A    between atoms: _32  and  _33
REMARK   15  A    between atoms: _36  and  _38
REMARK   16  A    between atoms: _38  and  _39
REMARK   17  A    between atoms: _38  and  _41
REMARK   18  A    between atoms: _41  and  _42
REMARK   19  A    between atoms: _45  and  _47
REMARK   20  A    between atoms: _47  and  _48
REMARK   21  A    between atoms: _47  and  _50
REMARK   22  A    between atoms: _50  and  _51
REMARK   23  A    between atoms: _54  and  _56
REMARK   24  A    between atoms: _56  and  _57
REMARK   25  A    between atoms: _59  and  _61
REMARK   26  A    between atoms: _61  and  _62
REMARK   27  A    between atoms: _65  and  _67
REMARK   28  A    between atoms: _67  and  _68
REMARK   29  A    between atoms: _67  and  _70
REMARK   30  A    between atoms: _70  and  _71
REMARK   31  A    between atoms: _74  and  _76
REMARK   32  A    between atoms: _76  and  _77
REMARK   33  A    between atoms: _76  and  _79
REMARK   34  A    between atoms: _79  and  _80
REMARK   35  A    between atoms: _83  and  _85
REMARK   36  A    between atoms: _85  and  _86
REMARK   37  A    between atoms: _85  and  _88
REMARK   38  A    between atoms: _88  and  _89
REMARK   39  A    between atoms: _92  and  _94
REMARK   40  A    between atoms: _94  and  _95
REMARK   41  A    between atoms: _94  and  _97
REMARK   42  A    between atoms: _100  and  _102
REMARK   43  A    between atoms: _102  and  _103
REMARK   44  A    between atoms: _102  and  _105
REMARK   45  A    between atoms: _105  and  _106
REMARK   46  A    between atoms: _106  and  _107
REMARK   47  A    between atoms: _109  and  _111
REMARK   48  A    between atoms: _111  and  _112
REMARK   49  A    between atoms: _111  and  _114
REMARK   50  A    between atoms: _114  and  _115
REMARK   51  A    between atoms: _118  and  _120
REMARK   52  A    between atoms: _120  and  _121
REMARK   53  A    between atoms: _123  and  _125
REMARK   54  A    between atoms: _125  and  _126
REMARK   55  A    between atoms: _128  and  _130
REMARK   56  A    between atoms: _130  and  _131
REMARK   57  A    between atoms: _130  and  _133
REMARK   58  A    between atoms: _133  and  _134
REMARK   59  A    between atoms: _137  and  _139
REMARK   60  A    between atoms: _139  and  _140
REMARK   61  A    between atoms: _142  and  _144
REMARK   62  A    between atoms: _144  and  _145
REMARK   63  A    between atoms: _147  and  _149
REMARK   64  A    between atoms: _149  and  _150
REMARK   65  A    between atoms: _149  and  _152
REMARK   66  A    between atoms: _152  and  _153
REMARK   67  A    between atoms: _156  and  _158
REMARK   68  A    between atoms: _158  and  _159
REMARK   69  A    between atoms: _158  and  _161
REMARK   70  A    between atoms: _161  and  _162
REMARK   71  A    between atoms: _165  and  _167
REMARK   72  A    between atoms: _167  and  _168
REMARK   73  A    between atoms: _167  and  _170
REMARK   74  A    between atoms: _170  and  _171
REMARK   75  A    between atoms: _175  and  _176
REMARK   76  A    between atoms: _181  and  _183
REMARK   77  A    between atoms: _183  and  _184
REMARK   78  A    between atoms: _183  and  _186
REMARK   79  A    between atoms: _189  and  _191
REMARK   80  A    between atoms: _191  and  _192
REMARK   81  A    between atoms: _191  and  _194
REMARK   82  A    between atoms: _194  and  _195
REMARK   83  A    between atoms: _200  and  _202
REMARK   84  A    between atoms: _202  and  _203
REMARK   85  A    between atoms: _202  and  _205
REMARK   86  A    between atoms: _205  and  _206
REMARK   87  A    between atoms: _209  and  _211
REMARK   88  A    between atoms: _211  and  _212
REMARK   89  A    between atoms: _211  and  _214
REMARK   90  A    between atoms: _214  and  _215
REMARK   91  A    between atoms: _218  and  _220
REMARK   92  A    between atoms: _220  and  _221
REMARK   93  A    between atoms: _223  and  _225
REMARK   94  A    between atoms: _225  and  _226
REMARK   95  A    between atoms: _225  and  _228
REMARK   96  A    between atoms: _228  and  _229
REMARK   97  A    between atoms: _229  and  _230
REMARK   98  A    between atoms: _230  and  _231
REMARK   99  A    between atoms: _240  and  _242
REMARK  100  A    between atoms: _242  and  _243
REMARK  101  A    between atoms: _242  and  _245
REMARK  102  A    between atoms: _245  and  _246
REMARK  103  A    between atoms: _248  and  _250
REMARK  104  A    between atoms: _250  and  _251
REMARK  105  A    between atoms: _250  and  _253
REMARK  106  A    between atoms: _253  and  _254
REMARK  107  A    between atoms: _254  and  _255
REMARK  108  A    between atoms: _255  and  _256
REMARK  109  A    between atoms: _265  and  _267
REMARK  110  A    between atoms: _267  and  _268
REMARK  111  A    between atoms: _267  and  _270
REMARK  112  A    between atoms: _270  and  _271
REMARK  113  A    between atoms: _274  and  _276
REMARK  114  A    between atoms: _276  and  _277
REMARK  115  A    between atoms: _276  and  _279
REMARK  116  A    between atoms: _279  and  _280
REMARK  117  A    between atoms: _283  and  _285
REMARK  118  A    between atoms: _285  and  _286
REMARK  119  A    between atoms: _285  and  _288
REMARK  120  A    between atoms: _288  and  _289
REMARK  121  A    between atoms: _292  and  _294
REMARK  122  A    between atoms: _294  and  _295
REMARK  123  A    between atoms: _294  and  _297
REMARK  124  A    between atoms: _297  and  _298
REMARK  125  A    between atoms: _301  and  _303
REMARK  126  A    between atoms: _303  and  _304
REMARK  127  A    between atoms: _306  and  _308
REMARK  128  A    between atoms: _308  and  _309
REMARK  129  A    between atoms: _312  and  _314
REMARK  130  A    between atoms: _314  and  _315
REMARK  131  A    between atoms: _314  and  _317
REMARK  132  A    between atoms: _317  and  _318
REMARK  133  A    between atoms: _321  and  _323
REMARK  134  A    between atoms: _323  and  _324
REMARK  135  A    between atoms: _323  and  _326
REMARK  136  A    between atoms: _326  and  _327
REMARK  137  A    between atoms: _330  and  _332
REMARK  138  A    between atoms: _332  and  _333
REMARK  139  A    between atoms: _332  and  _335
REMARK  140  A    between atoms: _335  and  _336
REMARK  141  A    between atoms: _339  and  _341
REMARK  142  A    between atoms: _341  and  _342
REMARK  143  A    between atoms: _341  and  _344
REMARK  144  A    between atoms: _347  and  _349
REMARK  145  A    between atoms: _349  and  _350
REMARK  146  A    between atoms: _349  and  _352
REMARK  147  A    between atoms: _352  and  _353
REMARK  148  A    between atoms: _353  and  _354
REMARK  149  A    between atoms: _356  and  _358
REMARK  150  A    between atoms: _358  and  _359
REMARK  151  A    between atoms: _358  and  _361
REMARK  152  A    between atoms: _361  and  _362
REMARK  153  A    between atoms: _365  and  _367
REMARK  154  A    between atoms: _367  and  _368
REMARK  155  A    between atoms: _370  and  _372
REMARK  156  A    between atoms: _372  and  _373
REMARK  157  A    between atoms: _375  and  _377
REMARK  158  A    between atoms: _377  and  _378
REMARK  159  A    between atoms: _377  and  _380
REMARK  160  A    between atoms: _380  and  _381
REMARK  161  A    between atoms: _384  and  _386
REMARK  162  A    between atoms: _386  and  _387
REMARK  163  A    between atoms: _389  and  _391
REMARK  164  A    between atoms: _391  and  _392
REMARK  165  A    between atoms: _394  and  _396
REMARK  166  A    between atoms: _396  and  _397
REMARK  167  A    between atoms: _396  and  _399
REMARK  168  A    between atoms: _399  and  _400
REMARK  169  A    between atoms: _403  and  _405
REMARK  170  A    between atoms: _405  and  _406
REMARK  171  A    between atoms: _405  and  _408
REMARK  172  A    between atoms: _411  and  _413
REMARK  173  A    between atoms: _413  and  _414
REMARK  174  A    between atoms: _413  and  _416
REMARK  175  A    between atoms: _416  and  _417
REMARK  176  A    between atoms: _421  and  _422
REMARK  177  A    between atoms: _427  and  _429
REMARK  178  A    between atoms: _429  and  _430
REMARK  179  A    between atoms: _429  and  _432
REMARK  180  A    between atoms: _432  and  _433
REMARK  181  A    between atoms: _437  and  _438
REMARK  182  A    between atoms: _443  and  _445
REMARK  183  A    between atoms: _445  and  _446
REMARK  184  A    between atoms: _445  and  _448
REMARK  185  A    between atoms: _451  and  _453
REMARK  186  A    between atoms: _453  and  _454
REMARK  187  A    between atoms: _453  and  _456
REMARK  188  A    between atoms: _456  and  _457
REMARK  189  A    between atoms: _462  and  _464
REMARK  190  A    between atoms: _464  and  _465
REMARK  191  A    between atoms: _464  and  _467
REMARK  192  A    between atoms: _467  and  _468
REMARK  193  A    between atoms: _471  and  _473
REMARK  194  A    between atoms: _473  and  _474
REMARK  195  A    between atoms: _473  and  _476
REMARK  196  A    between atoms: _476  and  _477
REMARK  197  A    between atoms: _480  and  _482
REMARK  198  A    between atoms: _482  and  _483
REMARK  199  A    between atoms: _485  and  _487
REMARK  200  A    between atoms: _487  and  _488
REMARK  201  A    between atoms: _487  and  _490
REMARK  202  A    between atoms: _490  and  _491
REMARK  203  A    between atoms: _491  and  _492
REMARK  204  A    between atoms: _492  and  _493
REMARK  205  A    between atoms: _502  and  _504
REMARK  206  A    between atoms: _504  and  _505
REMARK  207  A    between atoms: _504  and  _507
REMARK  208  A    between atoms: _507  and  _508
REMARK                            x       y       z     vdW  Elec       q    Type
REMARK                         _______ _______ _______ _____ _____    ______ ____
ROOT
ATOM      1  C   GLY A   5       9.187 -20.770  -2.733  0.00  0.00    +0.243 C 
ATOM      2  O   GLY A   5       8.088 -20.201  -2.818  0.00  0.00    -0.273 OA
ATOM      3  N   ALA A   6      10.185 -20.529  -3.583  0.00  0.00    -0.297 N 
ATOM      4  H   ALA A   6      11.097 -21.003  -3.423  0.00  0.00    +0.150 HD
ENDROOT
BRANCH   3   5
ATOM      5  CA  ALA A   6      10.059 -19.620  -4.742  0.00  0.00    +0.149 C 
ATOM      6  CB  ALA A   6      11.275 -18.701  -4.842  0.00  0.00    +0.031 C 
BRANCH   5   7
ATOM      7  C   ALA A   6       9.942 -20.401  -6.038  0.00  0.00    +0.241 C 
ATOM      8  O   ALA A   6      10.807 -21.207  -6.349  0.00  0.00    -0.273 OA
ATOM      9  N   ASP A   7       8.919 -20.099  -6.828  0.00  0.00    -0.297 N 
ATOM     10  H   ASP A   7       8.240 -19.373  -6.522  0.00  0.00    +0.150 HD
BRANCH   9  11
ATOM     11  CA  ASP A   7       8.723 -20.757  -8.111  0.00  0.00    +0.160 C 
BRANCH  11  12
ATOM     12  C   ASP A   7       9.795 -20.297  -9.097  0.00  0.00    +0.241 C 
ATOM     13  N   ASP A   8      10.132 -19.012  -9.002  0.00  0.00    -0.297 N 
ATOM     14  H   ASP A   8       9.801 -18.482  -8.171  0.00  0.00    +0.150 HD
ATOM     15  O   ASP A   7      10.287 -21.093  -9.910  0.00  0.00    -0.273 OA
BRANCH  13  16
ATOM     16  CA  ASP A   8      10.937 -18.299  -9.991  0.00  0.00    +0.160 C 
BRANCH  16  17
ATOM     17  C   ASP A   8      12.134 -17.615  -9.330  0.00  0.00    +0.241 C 
ATOM     18  O   ASP A   8      12.118 -17.309  -8.143  0.00  0.00    -0.273 OA
ATOM     19  N   THR A   9      13.198 -17.417 -10.096  0.00  0.00    -0.295 N 
ATOM     20  H   THR A   9      13.188 -17.785 -11.069  0.00  0.00    +0.150 HD
BRANCH  19  21
ATOM     21  CA  THR A   9      14.376 -16.708  -9.633  0.00  0.00    +0.176 C 
BRANCH  21  22
ATOM     22  C   THR A   9      14.129 -15.218  -9.741  0.00  0.00    +0.243 C 
ATOM     23  N   VAL A  10      14.486 -14.475  -8.695  0.00  0.00    -0.298 N 
ATOM     24  H   VAL A  10      14.950 -14.924  -7.880  0.00  0.00    +0.150 HD
ATOM     25  O   THR A   9      13.656 -14.751 -10.772  0.00  0.00    -0.273 OA
BRANCH  23  26
ATOM     26  CA  VAL A  10      14.233 -13.035  -8.679  0.00  0.00    +0.137 C 
BRANCH  26  27
ATOM     27  CB  VAL A  10      13.010 -12.596  -7.816  0.00  0.00    +0.026 C 
ATOM     28  CG2 VAL A  10      11.833 -13.549  -7.974  0.00  0.00    +0.002 C 
ATOM     29  CG1 VAL A  10      12.614 -11.160  -8.207  0.00  0.00    +0.002 C 
ENDBRANCH  26  27
BRANCH  26  30
ATOM     30  C   VAL A  10      15.467 -12.342  -8.124  0.00  0.00    +0.227 C 
ATOM     31  O   VAL A  10      15.930 -12.653  -7.038  0.00  0.00    -0.286 OA
ENDBRANCH  26  30
ENDBRANCH  23  26
ENDBRANCH  21  22
BRANCH  21  32
ATOM     32  CB  THR A   9      15.588 -17.083 -10.516  0.00  0.00    +0.137 C 
ATOM     33  CG2 THR A   9      16.798 -16.184 -10.247  0.00  0.00    +0.034 C 
BRANCH  32  34
ATOM     34  OG1 THR A   9      15.899 -18.447 -10.246  0.00  0.00    -0.382 OA
ATOM     35  HG1 THR A   9      16.674 -18.723 -10.797  0.00  0.00    +0.210 HD
ENDBRANCH  32  34
ENDBRANCH  21  32
ENDBRANCH  19  21
ENDBRANCH  16  17
BRANCH  16  36
ATOM     36  CB  ASP A   8      10.121 -17.206 -10.721  0.00  0.00    +0.143 C 
BRANCH  36  37
ATOM     37  CG  ASP A   8       8.670 -17.576 -11.024  0.00  0.00    +0.367 C 
ATOM     38  OD2 ASP A   8       7.756 -16.839 -10.545  0.00  0.00    -0.246 OA
ATOM     39  OD1 ASP A   8       8.434 -18.523 -11.818  0.00  0.00    -0.246 OA
ENDBRANCH  36  37
ENDBRANCH  16  36
ENDBRANCH  13  16
ENDBRANCH  11  12
BRANCH  11  40
ATOM     40  CB  ASP A   7       7.341 -20.420  -8.684  0.00  0.00    +0.143 C 
BRANCH  40  41
ATOM     41  CG  ASP A   7       6.166 -21.001  -7.866  0.00  0.00    +0.367 C 
ATOM     42  OD2 ASP A   7       6.326 -21.796  -6.902  0.00  0.00    -0.246 OA
ATOM     43  OD1 ASP A   7       5.017 -20.674  -8.226  0.00  0.00    -0.246 OA
ENDBRANCH  40  41
ENDBRANCH  11  40
ENDBRANCH   9  11
ENDBRANCH   5   7
ENDBRANCH   3   5
BRANCH   1  44
ATOM     44  CA  GLY A   5       9.478 -21.732  -1.589  0.00  0.00    +0.176 C 
BRANCH  44  46
ATOM     45  C   THR A   4      11.085 -23.418  -2.339  0.00  0.00    +0.243 C 
ATOM     46  N   GLY A   5      10.805 -22.324  -1.625  0.00  0.00    -0.295 N 
ATOM     47  H   GLY A   5      11.566 -21.879  -1.074  0.00  0.00    +0.150 HD
ATOM     48  O   THR A   4      10.237 -24.009  -2.998  0.00  0.00    -0.273 OA
BRANCH  45  49
ATOM     49  CA  THR A   4      12.535 -23.925  -2.359  0.00  0.00    +0.176 C 
BRANCH  49  51
ATOM     50  C   ASP A   3      13.744 -21.809  -2.656  0.00  0.00    +0.241 C 
ATOM     51  N   THR A   4      13.520 -22.914  -1.955  0.00  0.00    -0.295 N 
ATOM     52  H   THR A   4      14.065 -23.070  -1.083  0.00  0.00    +0.150 HD
ATOM     53  O   ASP A   3      13.164 -21.558  -3.714  0.00  0.00    -0.273 OA
BRANCH  50  54
ATOM     54  CA  ASP A   3      14.773 -20.856  -2.063  0.00  0.00    +0.160 C 
BRANCH  54  57
ATOM     55  C   LEU A   2      17.174 -21.234  -1.866  0.00  0.00    +0.241 C 
ATOM     56  O   LEU A   2      17.080 -21.530  -0.657  0.00  0.00    -0.273 OA
ATOM     57  N   ASP A   3      16.112 -21.032  -2.636  0.00  0.00    -0.297 N 
ATOM     58  H   ASP A   3      16.232 -20.998  -3.669  0.00  0.00    +0.150 HD
BRANCH  55  59
ATOM     59  CA  LEU A   2      18.543 -21.059  -2.544  0.00  0.00    +0.149 C 
BRANCH  59  61
ATOM     60  C   LEU A   1      18.729 -18.669  -2.301  0.00  0.00    +0.238 C 
ATOM     61  N   LEU A   2      19.186 -19.874  -1.983  0.00  0.00    -0.297 N 
ATOM     62  H   LEU A   2      19.996 -19.973  -1.339  0.00  0.00    +0.150 HD
ATOM     63  O   LEU A   1      17.930 -18.509  -3.238  0.00  0.00    -0.274 OA
BRANCH  60  64
ATOM     64  CA  LEU A   1      19.270 -17.488  -1.505  0.00  0.00    +0.145 C 
BRANCH  64  65
ATOM     65  N   LEU A   1      19.792 -16.457  -2.377  0.00  0.00    -0.238 NA
ATOM     66  H   LEU A   1      19.159 -15.688  -2.676  0.00  0.00    +0.142 HD
ENDBRANCH  64  65
BRANCH  64  67
ATOM     67  CB  LEU A   1      18.170 -16.842  -0.660  0.00  0.00    +0.026 C 
BRANCH  67  68
ATOM     68  CG  LEU A   1      17.577 -17.423   0.599  0.00  0.00    +0.002 C 
ATOM     69  CD2 LEU A   1      18.596 -17.522   1.720  0.00  0.00    +0.000 C 
ATOM     70  CD1 LEU A   1      16.386 -16.514   1.017  0.00  0.00    +0.000 C 
ENDBRANCH  67  68
ENDBRANCH  64  67
ENDBRANCH  60  64
ENDBRANCH  59  61
BRANCH  59  71
ATOM     71  CB  LEU A   2      19.399 -22.277  -2.319  0.00  0.00    +0.029 C 
BRANCH  71  72
ATOM     72  CG  LEU A   2      20.787 -22.333  -2.952  0.00  0.00    +0.002 C 
ATOM     73  CD2 LEU A   2      21.384 -23.661  -2.507  0.00  0.00    +0.000 C 
ATOM     74  CD1 LEU A   2      20.771 -22.176  -4.475  0.00  0.00    +0.000 C 
ENDBRANCH  71  72
ENDBRANCH  59  71
ENDBRANCH  55  59
ENDBRANCH  54  57
BRANCH  54  75
ATOM     75  CB  ASP A   3      14.352 -19.411  -2.305  0.00  0.00    +0.143 C 
BRANCH  75  76
ATOM     76  CG  ASP A   3      13.096 -19.018  -1.568  0.00  0.00    +0.367 C 
ATOM     77  OD2 ASP A   3      12.447 -19.866  -0.910  0.00  0.00    -0.246 OA
ATOM     78  OD1 ASP A   3      12.780 -17.824  -1.625  0.00  0.00    -0.246 OA
ENDBRANCH  75  76
ENDBRANCH  54  75
ENDBRANCH  50  54
ENDBRANCH  49  51
BRANCH  49  79
ATOM     79  CB  THR A   4      12.648 -25.198  -1.489  0.00  0.00    +0.137 C 
ATOM     80  CG2 THR A   4      14.046 -25.836  -1.619  0.00  0.00    +0.034 C 
BRANCH  79  81
ATOM     81  OG1 THR A   4      12.421 -24.874  -0.110  0.00  0.00    -0.382 OA
ATOM     82  HG1 THR A   4      11.515 -24.489  -0.008  0.00  0.00    +0.210 HD
ENDBRANCH  79  81
ENDBRANCH  49  79
ENDBRANCH  45  49
ENDBRANCH  44  46
ENDBRANCH   1  44
TORSDOF 35
REMARK  Name = ../refined-set-2016/3lzu/3lzu_pocket.pdb
REMARK  208 active torsions:
REMARK  status: ('A' for Active; 'I' for Inactive)
REMARK    1  A    between atoms: _1  and  _3
REMARK    2  A    between atoms: _3  and  _4
REMARK    3  A    between atoms: _3  and  _6
REMARK    4  A    between atoms: _6  and  _7
REMARK    5  A    between atoms: _7  and  _8
REMARK    6  A    between atoms: _8  and  _9
REMARK    7  A    between atoms: _18  and  _20
REMARK    8  A    between atoms: _20  and  _21
REMARK    9  A    between atoms: _20  and  _23
REMARK   10  A    between atoms: _23  and  _24
REMARK   11  A    between atoms: _27  and  _29
REMARK   12  A    between atoms: _29  and  _30
REMARK   13  A    between atoms: _29  and  _32
REMARK   14  A    between atoms: _32  and  _33
REMARK   15  A    between atoms: _36  and  _38
REMARK   16  A    between atoms: _38  and  _39
REMARK   17  A    between atoms: _38  and  _41
REMARK   18  A    between atoms: _41  and  _42
REMARK   19  A    between atoms: _45  and  _47
REMARK   20  A    between atoms: _47  and  _48
REMARK   21  A    between atoms: _47  and  _50
REMARK   22  A    between atoms: _50  and  _51
REMARK   23  A    between atoms: _54  and  _56
REMARK   24  A    between atoms: _56  and  _57
REMARK   25  A    between atoms: _59  and  _61
REMARK   26  A    between atoms: _61  and  _62
REMARK   27  A    between atoms: _65  and  _67
REMARK   28  A    between atoms: _67  and  _68
REMARK   29  A    between atoms: _67  and  _70
REMARK   30  A    between atoms: _70  and  _71
REMARK   31  A    between atoms: _74  and  _76
REMARK   32  A    between atoms: _76  and  _77
REMARK   33  A    between atoms: _76  and  _79
REMARK   34  A    between atoms: _79  and  _80
REMARK   35  A    between atoms: _83  and  _85
REMARK   36  A    between atoms: _85  and  _86
REMARK   37  A    between atoms: _85  and  _88
REMARK   38  A    between atoms: _88  and  _89
REMARK   39  A    between atoms: _92  and  _94
REMARK   40  A    between atoms: _94  and  _95
REMARK   41  A    between atoms: _94  and  _97
REMARK   42  A    between atoms: _100  and  _102
REMARK   43  A    between atoms: _102  and  _103
REMARK   44  A    between atoms: _102  and  _105
REMARK   45  A    between atoms: _105  and  _106
REMARK   46  A    between atoms: _106  and  _107
REMARK   47  A    between atoms: _109  and  _111
REMARK   48  A    between atoms: _111  and  _112
REMARK   49  A    between atoms: _111  and  _114
REMARK   50  A    between atoms: _114  and  _115
REMARK   51  A    between atoms: _118  and  _120
REMARK   52  A    between atoms: _120  and  _121
REMARK   53  A    between atoms: _123  and  _125
REMARK   54  A    between atoms: _125  and  _126
REMARK   55  A    between atoms: _128  and  _130
REMARK   56  A    between atoms: _130  and  _131
REMARK   57  A    between atoms: _130  and  _133
REMARK   58  A    between atoms: _133  and  _134
REMARK   59  A    between atoms: _137  and  _139
REMARK   60  A    between atoms: _139  and  _140
REMARK   61  A    between atoms: _142  and  _144
REMARK   62  A    between atoms: _144  and  _145
REMARK   63  A    between atoms: _147  and  _149
REMARK   64  A    between atoms: _149  and  _150
REMARK   65  A    between atoms: _149  and  _152
REMARK   66  A    between atoms: _152  and  _153
REMARK   67  A    between atoms: _156  and  _158
REMARK   68  A    between atoms: _158  and  _159
REMARK   69  A    between atoms: _158  and  _161
REMARK   70  A    between atoms: _161  and  _162
REMARK   71  A    between atoms: _165  and  _167
REMARK   72  A    between atoms: _167  and  _168
REMARK   73  A    between atoms: _167  and  _170
REMARK   74  A    between atoms: _170  and  _171
REMARK   75  A    between atoms: _175  and  _176
REMARK   76  A    between atoms: _181  and  _183
REMARK   77  A    between atoms: _183  and  _184
REMARK   78  A    between atoms: _183  and  _186
REMARK   79  A    between atoms: _189  and  _191
REMARK   80  A    between atoms: _191  and  _192
REMARK   81  A    between atoms: _191  and  _194
REMARK   82  A    between atoms: _194  and  _195
REMARK   83  A    between atoms: _200  and  _202
REMARK   84  A    between atoms: _202  and  _203
REMARK   85  A    between atoms: _202  and  _205
REMARK   86  A    between atoms: _205  and  _206
REMARK   87  A    between atoms: _209  and  _211
REMARK   88  A    between atoms: _211  and  _212
REMARK   89  A    between atoms: _211  and  _214
REMARK   90  A    between atoms: _214  and  _215
REMARK   91  A    between atoms: _218  and  _220
REMARK   92  A    between atoms: _220  and  _221
REMARK   93  A    between atoms: _223  and  _225
REMARK   94  A    between atoms: _225  and  _226
REMARK   95  A    between atoms: _225  and  _228
REMARK   96  A    between atoms: _228  and  _229
REMARK   97  A    between atoms: _229  and  _230
REMARK   98  A    between atoms: _230  and  _231
REMARK   99  A    between atoms: _240  and  _242
REMARK  100  A    between atoms: _242  and  _243
REMARK  101  A    between atoms: _242  and  _245
REMARK  102  A    between atoms: _245  and  _246
REMARK  103  A    between atoms: _248  and  _250
REMARK  104  A    between atoms: _250  and  _251
REMARK  105  A    between atoms: _250  and  _253
REMARK  106  A    between atoms: _253  and  _254
REMARK  107  A    between atoms: _254  and  _255
REMARK  108  A    between atoms: _255  and  _256
REMARK  109  A    between atoms: _265  and  _267
REMARK  110  A    between atoms: _267  and  _268
REMARK  111  A    between atoms: _267  and  _270
REMARK  112  A    between atoms: _270  and  _271
REMARK  113  A    between atoms: _274  and  _276
REMARK  114  A    between atoms: _276  and  _277
REMARK  115  A    between atoms: _276  and  _279
REMARK  116  A    between atoms: _279  and  _280
REMARK  117  A    between atoms: _283  and  _285
REMARK  118  A    between atoms: _285  and  _286
REMARK  119  A    between atoms: _285  and  _288
REMARK  120  A    between atoms: _288  and  _289
REMARK  121  A    between atoms: _292  and  _294
REMARK  122  A    between atoms: _294  and  _295
REMARK  123  A    between atoms: _294  and  _297
REMARK  124  A    between atoms: _297  and  _298
REMARK  125  A    between atoms: _301  and  _303
REMARK  126  A    between atoms: _303  and  _304
REMARK  127  A    between atoms: _306  and  _308
REMARK  128  A    between atoms: _308  and  _309
REMARK  129  A    between atoms: _312  and  _314
REMARK  130  A    between atoms: _314  and  _315
REMARK  131  A    between atoms: _314  and  _317
REMARK  132  A    between atoms: _317  and  _318
REMARK  133  A    between atoms: _321  and  _323
REMARK  134  A    between atoms: _323  and  _324
REMARK  135  A    between atoms: _323  and  _326
REMARK  136  A    between atoms: _326  and  _327
REMARK  137  A    between atoms: _330  and  _332
REMARK  138  A    between atoms: _332  and  _333
REMARK  139  A    between atoms: _332  and  _335
REMARK  140  A    between atoms: _335  and  _336
REMARK  141  A    between atoms: _339  and  _341
REMARK  142  A    between atoms: _341  and  _342
REMARK  143  A    between atoms: _341  and  _344
REMARK  144  A    between atoms: _347  and  _349
REMARK  145  A    between atoms: _349  and  _350
REMARK  146  A    between atoms: _349  and  _352
REMARK  147  A    between atoms: _352  and  _353
REMARK  148  A    between atoms: _353  and  _354
REMARK  149  A    between atoms: _356  and  _358
REMARK  150  A    between atoms: _358  and  _359
REMARK  151  A    between atoms: _358  and  _361
REMARK  152  A    between atoms: _361  and  _362
REMARK  153  A    between atoms: _365  and  _367
REMARK  154  A    between atoms: _367  and  _368
REMARK  155  A    between atoms: _370  and  _372
REMARK  156  A    between atoms: _372  and  _373
REMARK  157  A    between atoms: _375  and  _377
REMARK  158  A    between atoms: _377  and  _378
REMARK  159  A    between atoms: _377  and  _380
REMARK  160  A    between atoms: _380  and  _381
REMARK  161  A    between atoms: _384  and  _386
REMARK  162  A    between atoms: _386  and  _387
REMARK  163  A    between atoms: _389  and  _391
REMARK  164  A    between atoms: _391  and  _392
REMARK  165  A    between atoms: _394  and  _396
REMARK  166  A    between atoms: _396  and  _397
REMARK  167  A    between atoms: _396  and  _399
REMARK  168  A    between atoms: _399  and  _400
REMARK  169  A    between atoms: _403  and  _405
REMARK  170  A    between atoms: _405  and  _406
REMARK  171  A    between atoms: _405  and  _408
REMARK  172  A    between atoms: _411  and  _413
REMARK  173  A    between atoms: _413  and  _414
REMARK  174  A    between atoms: _413  and  _416
REMARK  175  A    between atoms: _416  and  _417
REMARK  176  A    between atoms: _421  and  _422
REMARK  177  A    between atoms: _427  and  _429
REMARK  178  A    between atoms: _429  and  _430
REMARK  179  A    between atoms: _429  and  _432
REMARK  180  A    between atoms: _432  and  _433
REMARK  181  A    between atoms: _437  and  _438
REMARK  182  A    between atoms: _443  and  _445
REMARK  183  A    between atoms: _445  and  _446
REMARK  184  A    between atoms: _445  and  _448
REMARK  185  A    between atoms: _451  and  _453
REMARK  186  A    between atoms: _453  and  _454
REMARK  187  A    between atoms: _453  and  _456
REMARK  188  A    between atoms: _456  and  _457
REMARK  189  A    between atoms: _462  and  _464
REMARK  190  A    between atoms: _464  and  _465
REMARK  191  A    between atoms: _464  and  _467
REMARK  192  A    between atoms: _467  and  _468
REMARK  193  A    between atoms: _471  and  _473
REMARK  194  A    between atoms: _473  and  _474
REMARK  195  A    between atoms: _473  and  _476
REMARK  196  A    between atoms: _476  and  _477
REMARK  197  A    between atoms: _480  and  _482
REMARK  198  A    between atoms: _482  and  _483
REMARK  199  A    between atoms: _485  and  _487
REMARK  200  A    between atoms: _487  and  _488
REMARK  201  A    between atoms: _487  and  _490
REMARK  202  A    between atoms: _490  and  _491
REMARK  203  A    between atoms: _491  and  _492
REMARK  204  A    between atoms: _492  and  _493
REMARK  205  A    between atoms: _502  and  _504
REMARK  206  A    between atoms: _504  and  _505
REMARK  207  A    between atoms: _504  and  _507
REMARK  208  A    between atoms: _507  and  _508
REMARK                            x       y       z     vdW  Elec       q    Type
REMARK                         _______ _______ _______ _____ _____    ______ ____
ROOT
ATOM      1  C   GLY A   3       4.027 -12.829  -4.172  0.00  0.00    +0.243 C 
ATOM      2  N   GLY A   4       4.262 -12.235  -3.014  0.00  0.00    -0.295 N 
ATOM      3  H   GLY A   4       3.999 -11.235  -2.901  0.00  0.00    +0.150 HD
ATOM      4  O   GLY A   3       4.372 -13.975  -4.425  0.00  0.00    -0.273 OA
ENDROOT
BRANCH   2   5
ATOM      5  CA  GLY A   4       4.871 -12.925  -1.902  0.00  0.00    +0.176 C 
BRANCH   5   6
ATOM      6  C   GLY A   4       4.102 -12.568  -0.655  0.00  0.00    +0.243 C 
ATOM      7  N   ILE A   5       4.768 -12.657   0.489  0.00  0.00    -0.297 N 
ATOM      8  H   ILE A   5       5.789 -12.854   0.472  0.00  0.00    +0.150 HD
ATOM      9  O   GLY A   4       2.936 -12.171  -0.726  0.00  0.00    -0.273 OA
BRANCH   7  10
ATOM     10  CA  ILE A   5       4.093 -12.484   1.768  0.00  0.00    +0.149 C 
BRANCH  10  11
ATOM     11  C   ILE A   5       3.384 -11.141   1.975  0.00  0.00    +0.241 C 
ATOM     12  O   ILE A   5       2.217 -11.128   2.398  0.00  0.00    -0.273 OA
ATOM     13  N   GLY A   6       4.054 -10.032   1.672  0.00  0.00    -0.295 N 
ATOM     14  H   GLY A   6       5.017 -10.106   1.287  0.00  0.00    +0.150 HD
BRANCH  13  15
ATOM     15  CA  GLY A   6       3.455  -8.701   1.873  0.00  0.00    +0.176 C 
BRANCH  15  16
ATOM     16  C   GLY A   6       2.687  -8.090   0.708  0.00  0.00    +0.243 C 
ATOM     17  O   GLY A   6       2.358  -6.904   0.730  0.00  0.00    -0.273 OA
ATOM     18  N   GLY A   7       2.396  -8.881  -0.315  0.00  0.00    -0.296 N 
ATOM     19  H   GLY A   7       2.665  -9.885  -0.267  0.00  0.00    +0.150 HD
BRANCH  18  20
ATOM     20  CA  GLY A   7       1.713  -8.392  -1.503  0.00  0.00    +0.163 C 
BRANCH  20  21
ATOM     21  C   GLY A   7       2.547  -8.615  -2.746  0.00  0.00    +0.229 C 
ATOM     22  O   GLY A   7       3.265  -9.602  -2.844  0.00  0.00    -0.286 OA
ENDBRANCH  20  21
ENDBRANCH  18  20
ENDBRANCH  15  16
ENDBRANCH  13  15
ENDBRANCH  10  11
BRANCH  10  23
ATOM     23  CB  ILE A   5       5.015 -12.859   2.966  0.00  0.00    +0.027 C 
ATOM     24  CG2 ILE A   5       5.048 -11.796   4.062  0.00  0.00    +0.002 C 
BRANCH  23  25
ATOM     25  CG1 ILE A   5       4.489 -14.133   3.628  0.00  0.00    +0.002 C 
ATOM     26  CD1 ILE A   5       5.416 -14.683   4.669  0.00  0.00    +0.000 C 
ENDBRANCH  23  25
ENDBRANCH  10  23
ENDBRANCH   7  10
ENDBRANCH   5   6
ENDBRANCH   2   5
BRANCH   1  27
ATOM     27  CA  GLY A   3       3.289 -11.986  -5.180  0.00  0.00    +0.176 C 
BRANCH  27  29
ATOM     28  C   ILE A   2       4.345 -11.285  -7.221  0.00  0.00    +0.241 C 
ATOM     29  N   GLY A   3       3.745 -12.242  -6.530  0.00  0.00    -0.295 N 
ATOM     30  H   GLY A   3       3.601 -13.179  -6.958  0.00  0.00    +0.150 HD
ATOM     31  O   ILE A   2       4.572 -10.167  -6.745  0.00  0.00    -0.273 OA
BRANCH  28  32
ATOM     32  CA  ILE A   2       4.724 -11.646  -8.652  0.00  0.00    +0.148 C 
BRANCH  32  34
ATOM     33  C   MET A   1       3.867 -10.402 -10.587  0.00  0.00    +0.238 C 
ATOM     34  N   ILE A   2       4.649 -10.467  -9.513  0.00  0.00    -0.297 N 
ATOM     35  H   ILE A   2       5.234  -9.641  -9.275  0.00  0.00    +0.150 HD
ATOM     36  O   MET A   1       3.249 -11.368 -11.045  0.00  0.00    -0.274 OA
BRANCH  33  37
ATOM     37  CA  MET A   1       3.773  -9.046 -11.279  0.00  0.00    +0.146 C 
BRANCH  37  38
ATOM     38  N   MET A   1       3.911  -9.299 -12.707  0.00  0.00    -0.238 NA
ATOM     39  H   MET A   1       3.194  -9.884 -13.182  0.00  0.00    +0.142 HD
ENDBRANCH  37  38
BRANCH  37  40
ATOM     40  CB  MET A   1       2.434  -8.384 -10.955  0.00  0.00    +0.038 C 
BRANCH  40  41
ATOM     41  CG  MET A   1       2.137  -7.118 -11.770  0.00  0.00    +0.060 C 
BRANCH  41  42
ATOM     42  SD  MET A   1       1.023  -5.969 -10.931  0.00  0.00    -0.139 S 
ATOM     43  CE  MET A   1       2.129  -5.476  -9.624  0.00  0.00    +0.069 C 
ENDBRANCH  41  42
ENDBRANCH  40  41
ENDBRANCH  37  40
ENDBRANCH  33  37
ENDBRANCH  32  34
BRANCH  32  44
ATOM     44  CB  ILE A   2       6.115 -12.331  -8.662  0.00  0.00    +0.027 C 
ATOM     45  CG2 ILE A   2       6.456 -12.805 -10.074  0.00  0.00    +0.002 C 
BRANCH  44  46
ATOM     46  CG1 ILE A   2       7.199 -11.394  -8.128  0.00  0.00    +0.002 C 
ATOM     47  CD1 ILE A   2       8.550 -12.037  -7.986  0.00  0.00    +0.000 C 
ENDBRANCH  44  46
ENDBRANCH  32  44
ENDBRANCH  28  32
ENDBRANCH  27  29
ENDBRANCH   1  27
TORSDOF 21
REMARK  Name = ../refined-set-2016/3lzu/3lzu_pocket.pdb
REMARK  208 active torsions:
REMARK  status: ('A' for Active; 'I' for Inactive)
REMARK    1  A    between atoms: _1  and  _3
REMARK    2  A    between atoms: _3  and  _4
REMARK    3  A    between atoms: _3  and  _6
REMARK    4  A    between atoms: _6  and  _7
REMARK    5  A    between atoms: _7  and  _8
REMARK    6  A    between atoms: _8  and  _9
REMARK    7  A    between atoms: _18  and  _20
REMARK    8  A    between atoms: _20  and  _21
REMARK    9  A    between atoms: _20  and  _23
REMARK   10  A    between atoms: _23  and  _24
REMARK   11  A    between atoms: _27  and  _29
REMARK   12  A    between atoms: _29  and  _30
REMARK   13  A    between atoms: _29  and  _32
REMARK   14  A    between atoms: _32  and  _33
REMARK   15  A    between atoms: _36  and  _38
REMARK   16  A    between atoms: _38  and  _39
REMARK   17  A    between atoms: _38  and  _41
REMARK   18  A    between atoms: _41  and  _42
REMARK   19  A    between atoms: _45  and  _47
REMARK   20  A    between atoms: _47  and  _48
REMARK   21  A    between atoms: _47  and  _50
REMARK   22  A    between atoms: _50  and  _51
REMARK   23  A    between atoms: _54  and  _56
REMARK   24  A    between atoms: _56  and  _57
REMARK   25  A    between atoms: _59  and  _61
REMARK   26  A    between atoms: _61  and  _62
REMARK   27  A    between atoms: _65  and  _67
REMARK   28  A    between atoms: _67  and  _68
REMARK   29  A    between atoms: _67  and  _70
REMARK   30  A    between atoms: _70  and  _71
REMARK   31  A    between atoms: _74  and  _76
REMARK   32  A    between atoms: _76  and  _77
REMARK   33  A    between atoms: _76  and  _79
REMARK   34  A    between atoms: _79  and  _80
REMARK   35  A    between atoms: _83  and  _85
REMARK   36  A    between atoms: _85  and  _86
REMARK   37  A    between atoms: _85  and  _88
REMARK   38  A    between atoms: _88  and  _89
REMARK   39  A    between atoms: _92  and  _94
REMARK   40  A    between atoms: _94  and  _95
REMARK   41  A    between atoms: _94  and  _97
REMARK   42  A    between atoms: _100  and  _102
REMARK   43  A    between atoms: _102  and  _103
REMARK   44  A    between atoms: _102  and  _105
REMARK   45  A    between atoms: _105  and  _106
REMARK   46  A    between atoms: _106  and  _107
REMARK   47  A    between atoms: _109  and  _111
REMARK   48  A    between atoms: _111  and  _112
REMARK   49  A    between atoms: _111  and  _114
REMARK   50  A    between atoms: _114  and  _115
REMARK   51  A    between atoms: _118  and  _120
REMARK   52  A    between atoms: _120  and  _121
REMARK   53  A    between atoms: _123  and  _125
REMARK   54  A    between atoms: _125  and  _126
REMARK   55  A    between atoms: _128  and  _130
REMARK   56  A    between atoms: _130  and  _131
REMARK   57  A    between atoms: _130  and  _133
REMARK   58  A    between atoms: _133  and  _134
REMARK   59  A    between atoms: _137  and  _139
REMARK   60  A    between atoms: _139  and  _140
REMARK   61  A    between atoms: _142  and  _144
REMARK   62  A    between atoms: _144  and  _145
REMARK   63  A    between atoms: _147  and  _149
REMARK   64  A    between atoms: _149  and  _150
REMARK   65  A    between atoms: _149  and  _152
REMARK   66  A    between atoms: _152  and  _153
REMARK   67  A    between atoms: _156  and  _158
REMARK   68  A    between atoms: _158  and  _159
REMARK   69  A    between atoms: _158  and  _161
REMARK   70  A    between atoms: _161  and  _162
REMARK   71  A    between atoms: _165  and  _167
REMARK   72  A    between atoms: _167  and  _168
REMARK   73  A    between atoms: _167  and  _170
REMARK   74  A    between atoms: _170  and  _171
REMARK   75  A    between atoms: _175  and  _176
REMARK   76  A    between atoms: _181  and  _183
REMARK   77  A    between atoms: _183  and  _184
REMARK   78  A    between atoms: _183  and  _186
REMARK   79  A    between atoms: _189  and  _191
REMARK   80  A    between atoms: _191  and  _192
REMARK   81  A    between atoms: _191  and  _194
REMARK   82  A    between atoms: _194  and  _195
REMARK   83  A    between atoms: _200  and  _202
REMARK   84  A    between atoms: _202  and  _203
REMARK   85  A    between atoms: _202  and  _205
REMARK   86  A    between atoms: _205  and  _206
REMARK   87  A    between atoms: _209  and  _211
REMARK   88  A    between atoms: _211  and  _212
REMARK   89  A    between atoms: _211  and  _214
REMARK   90  A    between atoms: _214  and  _215
REMARK   91  A    between atoms: _218  and  _220
REMARK   92  A    between atoms: _220  and  _221
REMARK   93  A    between atoms: _223  and  _225
REMARK   94  A    between atoms: _225  and  _226
REMARK   95  A    between atoms: _225  and  _228
REMARK   96  A    between atoms: _228  and  _229
REMARK   97  A    between atoms: _229  and  _230
REMARK   98  A    between atoms: _230  and  _231
REMARK   99  A    between atoms: _240  and  _242
REMARK  100  A    between atoms: _242  and  _243
REMARK  101  A    between atoms: _242  and  _245
REMARK  102  A    between atoms: _245  and  _246
REMARK  103  A    between atoms: _248  and  _250
REMARK  104  A    between atoms: _250  and  _251
REMARK  105  A    between atoms: _250  and  _253
REMARK  106  A    between atoms: _253  and  _254
REMARK  107  A    between atoms: _254  and  _255
REMARK  108  A    between atoms: _255  and  _256
REMARK  109  A    between atoms: _265  and  _267
REMARK  110  A    between atoms: _267  and  _268
REMARK  111  A    between atoms: _267  and  _270
REMARK  112  A    between atoms: _270  and  _271
REMARK  113  A    between atoms: _274  and  _276
REMARK  114  A    between atoms: _276  and  _277
REMARK  115  A    between atoms: _276  and  _279
REMARK  116  A    between atoms: _279  and  _280
REMARK  117  A    between atoms: _283  and  _285
REMARK  118  A    between atoms: _285  and  _286
REMARK  119  A    between atoms: _285  and  _288
REMARK  120  A    between atoms: _288  and  _289
REMARK  121  A    between atoms: _292  and  _294
REMARK  122  A    between atoms: _294  and  _295
REMARK  123  A    between atoms: _294  and  _297
REMARK  124  A    between atoms: _297  and  _298
REMARK  125  A    between atoms: _301  and  _303
REMARK  126  A    between atoms: _303  and  _304
REMARK  127  A    between atoms: _306  and  _308
REMARK  128  A    between atoms: _308  and  _309
REMARK  129  A    between atoms: _312  and  _314
REMARK  130  A    between atoms: _314  and  _315
REMARK  131  A    between atoms: _314  and  _317
REMARK  132  A    between atoms: _317  and  _318
REMARK  133  A    between atoms: _321  and  _323
REMARK  134  A    between atoms: _323  and  _324
REMARK  135  A    between atoms: _323  and  _326
REMARK  136  A    between atoms: _326  and  _327
REMARK  137  A    between atoms: _330  and  _332
REMARK  138  A    between atoms: _332  and  _333
REMARK  139  A    between atoms: _332  and  _335
REMARK  140  A    between atoms: _335  and  _336
REMARK  141  A    between atoms: _339  and  _341
REMARK  142  A    between atoms: _341  and  _342
REMARK  143  A    between atoms: _341  and  _344
REMARK  144  A    between atoms: _347  and  _349
REMARK  145  A    between atoms: _349  and  _350
REMARK  146  A    between atoms: _349  and  _352
REMARK  147  A    between atoms: _352  and  _353
REMARK  148  A    between atoms: _353  and  _354
REMARK  149  A    between atoms: _356  and  _358
REMARK  150  A    between atoms: _358  and  _359
REMARK  151  A    between atoms: _358  and  _361
REMARK  152  A    between atoms: _361  and  _362
REMARK  153  A    between atoms: _365  and  _367
REMARK  154  A    between atoms: _367  and  _368
REMARK  155  A    between atoms: _370  and  _372
REMARK  156  A    between atoms: _372  and  _373
REMARK  157  A    between atoms: _375  and  _377
REMARK  158  A    between atoms: _377  and  _378
REMARK  159  A    between atoms: _377  and  _380
REMARK  160  A    between atoms: _380  and  _381
REMARK  161  A    between atoms: _384  and  _386
REMARK  162  A    between atoms: _386  and  _387
REMARK  163  A    between atoms: _389  and  _391
REMARK  164  A    between atoms: _391  and  _392
REMARK  165  A    between atoms: _394  and  _396
REMARK  166  A    between atoms: _396  and  _397
REMARK  167  A    between atoms: _396  and  _399
REMARK  168  A    between atoms: _399  and  _400
REMARK  169  A    between atoms: _403  and  _405
REMARK  170  A    between atoms: _405  and  _406
REMARK  171  A    between atoms: _405  and  _408
REMARK  172  A    between atoms: _411  and  _413
REMARK  173  A    between atoms: _413  and  _414
REMARK  174  A    between atoms: _413  and  _416
REMARK  175  A    between atoms: _416  and  _417
REMARK  176  A    between atoms: _421  and  _422
REMARK  177  A    between atoms: _427  and  _429
REMARK  178  A    between atoms: _429  and  _430
REMARK  179  A    between atoms: _429  and  _432
REMARK  180  A    between atoms: _432  and  _433
REMARK  181  A    between atoms: _437  and  _438
REMARK  182  A    between atoms: _443  and  _445
REMARK  183  A    between atoms: _445  and  _446
REMARK  184  A    between atoms: _445  and  _448
REMARK  185  A    between atoms: _451  and  _453
REMARK  186  A    between atoms: _453  and  _454
REMARK  187  A    between atoms: _453  and  _456
REMARK  188  A    between atoms: _456  and  _457
REMARK  189  A    between atoms: _462  and  _464
REMARK  190  A    between atoms: _464  and  _465
REMARK  191  A    between atoms: _464  and  _467
REMARK  192  A    between atoms: _467  and  _468
REMARK  193  A    between atoms: _471  and  _473
REMARK  194  A    between atoms: _473  and  _474
REMARK  195  A    between atoms: _473  and  _476
REMARK  196  A    between atoms: _476  and  _477
REMARK  197  A    between atoms: _480  and  _482
REMARK  198  A    between atoms: _482  and  _483
REMARK  199  A    between atoms: _485  and  _487
REMARK  200  A    between atoms: _487  and  _488
REMARK  201  A    between atoms: _487  and  _490
REMARK  202  A    between atoms: _490  and  _491
REMARK  203  A    between atoms: _491  and  _492
REMARK  204  A    between atoms: _492  and  _493
REMARK  205  A    between atoms: _502  and  _504
REMARK  206  A    between atoms: _504  and  _505
REMARK  207  A    between atoms: _504  and  _507
REMARK  208  A    between atoms: _507  and  _508
REMARK                            x       y       z     vdW  Elec       q    Type
REMARK                         _______ _______ _______ _____ _____    ______ ____
ROOT
ATOM      1  CA  ILE A   1       6.013  -6.382  -6.924  0.00  0.00    +0.133 C 
ENDROOT
BRANCH   1   2
ATOM      2  N   ILE A   1       5.093  -7.306  -6.263  0.00  0.00    -0.239 NA
ATOM      3  H   ILE A   1       5.128  -8.318  -6.498  0.00  0.00    +0.142 HD
ENDBRANCH   1   2
BRANCH   1   4
ATOM      4  CB  ILE A   1       7.487  -6.549  -6.441  0.00  0.00    +0.023 C 
ATOM      5  CG2 ILE A   1       7.593  -6.225  -4.952  0.00  0.00    +0.002 C 
BRANCH   4   6
ATOM      6  CG1 ILE A   1       8.051  -7.952  -6.729  0.00  0.00    +0.002 C 
ATOM      7  CD1 ILE A   1       9.586  -8.001  -6.883  0.00  0.00    +0.000 C 
ENDBRANCH   4   6
ENDBRANCH   1   4
BRANCH   1   8
ATOM      8  C   ILE A   1       5.920  -6.549  -8.445  0.00  0.00    +0.224 C 
ATOM      9  O   ILE A   1       5.586  -7.627  -8.946  0.00  0.00    -0.287 OA
ENDBRANCH   1   8
TORSDOF 4
REMARK  Name = ../refined-set-2016/3lzu/3lzu_pocket.pdb
REMARK  208 active torsions:
REMARK  status: ('A' for Active; 'I' for Inactive)
REMARK    1  A    between atoms: _1  and  _3
REMARK    2  A    between atoms: _3  and  _4
REMARK    3  A    between atoms: _3  and  _6
REMARK    4  A    between atoms: _6  and  _7
REMARK    5  A    between atoms: _7  and  _8
REMARK    6  A    between atoms: _8  and  _9
REMARK    7  A    between atoms: _18  and  _20
REMARK    8  A    between atoms: _20  and  _21
REMARK    9  A    between atoms: _20  and  _23
REMARK   10  A    between atoms: _23  and  _24
REMARK   11  A    between atoms: _27  and  _29
REMARK   12  A    between atoms: _29  and  _30
REMARK   13  A    between atoms: _29  and  _32
REMARK   14  A    between atoms: _32  and  _33
REMARK   15  A    between atoms: _36  and  _38
REMARK   16  A    between atoms: _38  and  _39
REMARK   17  A    between atoms: _38  and  _41
REMARK   18  A    between atoms: _41  and  _42
REMARK   19  A    between atoms: _45  and  _47
REMARK   20  A    between atoms: _47  and  _48
REMARK   21  A    between atoms: _47  and  _50
REMARK   22  A    between atoms: _50  and  _51
REMARK   23  A    between atoms: _54  and  _56
REMARK   24  A    between atoms: _56  and  _57
REMARK   25  A    between atoms: _59  and  _61
REMARK   26  A    between atoms: _61  and  _62
REMARK   27  A    between atoms: _65  and  _67
REMARK   28  A    between atoms: _67  and  _68
REMARK   29  A    between atoms: _67  and  _70
REMARK   30  A    between atoms: _70  and  _71
REMARK   31  A    between atoms: _74  and  _76
REMARK   32  A    between atoms: _76  and  _77
REMARK   33  A    between atoms: _76  and  _79
REMARK   34  A    between atoms: _79  and  _80
REMARK   35  A    between atoms: _83  and  _85
REMARK   36  A    between atoms: _85  and  _86
REMARK   37  A    between atoms: _85  and  _88
REMARK   38  A    between atoms: _88  and  _89
REMARK   39  A    between atoms: _92  and  _94
REMARK   40  A    between atoms: _94  and  _95
REMARK   41  A    between atoms: _94  and  _97
REMARK   42  A    between atoms: _100  and  _102
REMARK   43  A    between atoms: _102  and  _103
REMARK   44  A    between atoms: _102  and  _105
REMARK   45  A    between atoms: _105  and  _106
REMARK   46  A    between atoms: _106  and  _107
REMARK   47  A    between atoms: _109  and  _111
REMARK   48  A    between atoms: _111  and  _112
REMARK   49  A    between atoms: _111  and  _114
REMARK   50  A    between atoms: _114  and  _115
REMARK   51  A    between atoms: _118  and  _120
REMARK   52  A    between atoms: _120  and  _121
REMARK   53  A    between atoms: _123  and  _125
REMARK   54  A    between atoms: _125  and  _126
REMARK   55  A    between atoms: _128  and  _130
REMARK   56  A    between atoms: _130  and  _131
REMARK   57  A    between atoms: _130  and  _133
REMARK   58  A    between atoms: _133  and  _134
REMARK   59  A    between atoms: _137  and  _139
REMARK   60  A    between atoms: _139  and  _140
REMARK   61  A    between atoms: _142  and  _144
REMARK   62  A    between atoms: _144  and  _145
REMARK   63  A    between atoms: _147  and  _149
REMARK   64  A    between atoms: _149  and  _150
REMARK   65  A    between atoms: _149  and  _152
REMARK   66  A    between atoms: _152  and  _153
REMARK   67  A    between atoms: _156  and  _158
REMARK   68  A    between atoms: _158  and  _159
REMARK   69  A    between atoms: _158  and  _161
REMARK   70  A    between atoms: _161  and  _162
REMARK   71  A    between atoms: _165  and  _167
REMARK   72  A    between atoms: _167  and  _168
REMARK   73  A    between atoms: _167  and  _170
REMARK   74  A    between atoms: _170  and  _171
REMARK   75  A    between atoms: _175  and  _176
REMARK   76  A    between atoms: _181  and  _183
REMARK   77  A    between atoms: _183  and  _184
REMARK   78  A    between atoms: _183  and  _186
REMARK   79  A    between atoms: _189  and  _191
REMARK   80  A    between atoms: _191  and  _192
REMARK   81  A    between atoms: _191  and  _194
REMARK   82  A    between atoms: _194  and  _195
REMARK   83  A    between atoms: _200  and  _202
REMARK   84  A    between atoms: _202  and  _203
REMARK   85  A    between atoms: _202  and  _205
REMARK   86  A    between atoms: _205  and  _206
REMARK   87  A    between atoms: _209  and  _211
REMARK   88  A    between atoms: _211  and  _212
REMARK   89  A    between atoms: _211  and  _214
REMARK   90  A    between atoms: _214  and  _215
REMARK   91  A    between atoms: _218  and  _220
REMARK   92  A    between atoms: _220  and  _221
REMARK   93  A    between atoms: _223  and  _225
REMARK   94  A    between atoms: _225  and  _226
REMARK   95  A    between atoms: _225  and  _228
REMARK   96  A    between atoms: _228  and  _229
REMARK   97  A    between atoms: _229  and  _230
REMARK   98  A    between atoms: _230  and  _231
REMARK   99  A    between atoms: _240  and  _242
REMARK  100  A    between atoms: _242  and  _243
REMARK  101  A    between atoms: _242  and  _245
REMARK  102  A    between atoms: _245  and  _246
REMARK  103  A    between atoms: _248  and  _250
REMARK  104  A    between atoms: _250  and  _251
REMARK  105  A    between atoms: _250  and  _253
REMARK  106  A    between atoms: _253  and  _254
REMARK  107  A    between atoms: _254  and  _255
REMARK  108  A    between atoms: _255  and  _256
REMARK  109  A    between atoms: _265  and  _267
REMARK  110  A    between atoms: _267  and  _268
REMARK  111  A    between atoms: _267  and  _270
REMARK  112  A    between atoms: _270  and  _271
REMARK  113  A    between atoms: _274  and  _276
REMARK  114  A    between atoms: _276  and  _277
REMARK  115  A    between atoms: _276  and  _279
REMARK  116  A    between atoms: _279  and  _280
REMARK  117  A    between atoms: _283  and  _285
REMARK  118  A    between atoms: _285  and  _286
REMARK  119  A    between atoms: _285  and  _288
REMARK  120  A    between atoms: _288  and  _289
REMARK  121  A    between atoms: _292  and  _294
REMARK  122  A    between atoms: _294  and  _295
REMARK  123  A    between atoms: _294  and  _297
REMARK  124  A    between atoms: _297  and  _298
REMARK  125  A    between atoms: _301  and  _303
REMARK  126  A    between atoms: _303  and  _304
REMARK  127  A    between atoms: _306  and  _308
REMARK  128  A    between atoms: _308  and  _309
REMARK  129  A    between atoms: _312  and  _314
REMARK  130  A    between atoms: _314  and  _315
REMARK  131  A    between atoms: _314  and  _317
REMARK  132  A    between atoms: _317  and  _318
REMARK  133  A    between atoms: _321  and  _323
REMARK  134  A    between atoms: _323  and  _324
REMARK  135  A    between atoms: _323  and  _326
REMARK  136  A    between atoms: _326  and  _327
REMARK  137  A    between atoms: _330  and  _332
REMARK  138  A    between atoms: _332  and  _333
REMARK  139  A    between atoms: _332  and  _335
REMARK  140  A    between atoms: _335  and  _336
REMARK  141  A    between atoms: _339  and  _341
REMARK  142  A    between atoms: _341  and  _342
REMARK  143  A    between atoms: _341  and  _344
REMARK  144  A    between atoms: _347  and  _349
REMARK  145  A    between atoms: _349  and  _350
REMARK  146  A    between atoms: _349  and  _352
REMARK  147  A    between atoms: _352  and  _353
REMARK  148  A    between atoms: _353  and  _354
REMARK  149  A    between atoms: _356  and  _358
REMARK  150  A    between atoms: _358  and  _359
REMARK  151  A    between atoms: _358  and  _361
REMARK  152  A    between atoms: _361  and  _362
REMARK  153  A    between atoms: _365  and  _367
REMARK  154  A    between atoms: _367  and  _368
REMARK  155  A    between atoms: _370  and  _372
REMARK  156  A    between atoms: _372  and  _373
REMARK  157  A    between atoms: _375  and  _377
REMARK  158  A    between atoms: _377  and  _378
REMARK  159  A    between atoms: _377  and  _380
REMARK  160  A    between atoms: _380  and  _381
REMARK  161  A    between atoms: _384  and  _386
REMARK  162  A    between atoms: _386  and  _387
REMARK  163  A    between atoms: _389  and  _391
REMARK  164  A    between atoms: _391  and  _392
REMARK  165  A    between atoms: _394  and  _396
REMARK  166  A    between atoms: _396  and  _397
REMARK  167  A    between atoms: _396  and  _399
REMARK  168  A    between atoms: _399  and  _400
REMARK  169  A    between atoms: _403  and  _405
REMARK  170  A    between atoms: _405  and  _406
REMARK  171  A    between atoms: _405  and  _408
REMARK  172  A    between atoms: _411  and  _413
REMARK  173  A    between atoms: _413  and  _414
REMARK  174  A    between atoms: _413  and  _416
REMARK  175  A    between atoms: _416  and  _417
REMARK  176  A    between atoms: _421  and  _422
REMARK  177  A    between atoms: _427  and  _429
REMARK  178  A    between atoms: _429  and  _430
REMARK  179  A    between atoms: _429  and  _432
REMARK  180  A    between atoms: _432  and  _433
REMARK  181  A    between atoms: _437  and  _438
REMARK  182  A    between atoms: _443  and  _445
REMARK  183  A    between atoms: _445  and  _446
REMARK  184  A    between atoms: _445  and  _448
REMARK  185  A    between atoms: _451  and  _453
REMARK  186  A    between atoms: _453  and  _454
REMARK  187  A    between atoms: _453  and  _456
REMARK  188  A    between atoms: _456  and  _457
REMARK  189  A    between atoms: _462  and  _464
REMARK  190  A    between atoms: _464  and  _465
REMARK  191  A    between atoms: _464  and  _467
REMARK  192  A    between atoms: _467  and  _468
REMARK  193  A    between atoms: _471  and  _473
REMARK  194  A    between atoms: _473  and  _474
REMARK  195  A    between atoms: _473  and  _476
REMARK  196  A    between atoms: _476  and  _477
REMARK  197  A    between atoms: _480  and  _482
REMARK  198  A    between atoms: _482  and  _483
REMARK  199  A    between atoms: _485  and  _487
REMARK  200  A    between atoms: _487  and  _488
REMARK  201  A    between atoms: _487  and  _490
REMARK  202  A    between atoms: _490  and  _491
REMARK  203  A    between atoms: _491  and  _492
REMARK  204  A    between atoms: _492  and  _493
REMARK  205  A    between atoms: _502  and  _504
REMARK  206  A    between atoms: _504  and  _505
REMARK  207  A    between atoms: _504  and  _507
REMARK  208  A    between atoms: _507  and  _508
REMARK                            x       y       z     vdW  Elec       q    Type
REMARK                         _______ _______ _______ _____ _____    ______ ____
ROOT
ATOM      1  CA  VAL A   1       9.199  -7.346 -12.312  0.00  0.00    +0.133 C 
ENDROOT
BRANCH   1   2
ATOM      2  CB  VAL A   1       9.440  -8.781 -11.798  0.00  0.00    +0.023 C 
ATOM      3  CG2 VAL A   1       9.498  -8.816 -10.256  0.00  0.00    +0.002 C 
ATOM      4  CG1 VAL A   1       8.373  -9.726 -12.353  0.00  0.00    +0.002 C 
ENDBRANCH   1   2
BRANCH   1   5
ATOM      5  N   VAL A   1       7.893  -6.845 -11.911  0.00  0.00    -0.239 NA
ATOM      6  H   VAL A   1       7.042  -7.225 -12.372  0.00  0.00    +0.142 HD
ENDBRANCH   1   5
BRANCH   1   7
ATOM      7  C   VAL A   1       9.365  -7.330 -13.822  0.00  0.00    +0.224 C 
ATOM      8  O   VAL A   1       8.391  -7.332 -14.581  0.00  0.00    -0.287 OA
ENDBRANCH   1   7
TORSDOF 3
REMARK  Name = ../refined-set-2016/3lzu/3lzu_pocket.pdb
REMARK  208 active torsions:
REMARK  status: ('A' for Active; 'I' for Inactive)
REMARK    1  A    between atoms: _1  and  _3
REMARK    2  A    between atoms: _3  and  _4
REMARK    3  A    between atoms: _3  and  _6
REMARK    4  A    between atoms: _6  and  _7
REMARK    5  A    between atoms: _7  and  _8
REMARK    6  A    between atoms: _8  and  _9
REMARK    7  A    between atoms: _18  and  _20
REMARK    8  A    between atoms: _20  and  _21
REMARK    9  A    between atoms: _20  and  _23
REMARK   10  A    between atoms: _23  and  _24
REMARK   11  A    between atoms: _27  and  _29
REMARK   12  A    between atoms: _29  and  _30
REMARK   13  A    between atoms: _29  and  _32
REMARK   14  A    between atoms: _32  and  _33
REMARK   15  A    between atoms: _36  and  _38
REMARK   16  A    between atoms: _38  and  _39
REMARK   17  A    between atoms: _38  and  _41
REMARK   18  A    between atoms: _41  and  _42
REMARK   19  A    between atoms: _45  and  _47
REMARK   20  A    between atoms: _47  and  _48
REMARK   21  A    between atoms: _47  and  _50
REMARK   22  A    between atoms: _50  and  _51
REMARK   23  A    between atoms: _54  and  _56
REMARK   24  A    between atoms: _56  and  _57
REMARK   25  A    between atoms: _59  and  _61
REMARK   26  A    between atoms: _61  and  _62
REMARK   27  A    between atoms: _65  and  _67
REMARK   28  A    between atoms: _67  and  _68
REMARK   29  A    between atoms: _67  and  _70
REMARK   30  A    between atoms: _70  and  _71
REMARK   31  A    between atoms: _74  and  _76
REMARK   32  A    between atoms: _76  and  _77
REMARK   33  A    between atoms: _76  and  _79
REMARK   34  A    between atoms: _79  and  _80
REMARK   35  A    between atoms: _83  and  _85
REMARK   36  A    between atoms: _85  and  _86
REMARK   37  A    between atoms: _85  and  _88
REMARK   38  A    between atoms: _88  and  _89
REMARK   39  A    between atoms: _92  and  _94
REMARK   40  A    between atoms: _94  and  _95
REMARK   41  A    between atoms: _94  and  _97
REMARK   42  A    between atoms: _100  and  _102
REMARK   43  A    between atoms: _102  and  _103
REMARK   44  A    between atoms: _102  and  _105
REMARK   45  A    between atoms: _105  and  _106
REMARK   46  A    between atoms: _106  and  _107
REMARK   47  A    between atoms: _109  and  _111
REMARK   48  A    between atoms: _111  and  _112
REMARK   49  A    between atoms: _111  and  _114
REMARK   50  A    between atoms: _114  and  _115
REMARK   51  A    between atoms: _118  and  _120
REMARK   52  A    between atoms: _120  and  _121
REMARK   53  A    between atoms: _123  and  _125
REMARK   54  A    between atoms: _125  and  _126
REMARK   55  A    between atoms: _128  and  _130
REMARK   56  A    between atoms: _130  and  _131
REMARK   57  A    between atoms: _130  and  _133
REMARK   58  A    between atoms: _133  and  _134
REMARK   59  A    between atoms: _137  and  _139
REMARK   60  A    between atoms: _139  and  _140
REMARK   61  A    between atoms: _142  and  _144
REMARK   62  A    between atoms: _144  and  _145
REMARK   63  A    between atoms: _147  and  _149
REMARK   64  A    between atoms: _149  and  _150
REMARK   65  A    between atoms: _149  and  _152
REMARK   66  A    between atoms: _152  and  _153
REMARK   67  A    between atoms: _156  and  _158
REMARK   68  A    between atoms: _158  and  _159
REMARK   69  A    between atoms: _158  and  _161
REMARK   70  A    between atoms: _161  and  _162
REMARK   71  A    between atoms: _165  and  _167
REMARK   72  A    between atoms: _167  and  _168
REMARK   73  A    between atoms: _167  and  _170
REMARK   74  A    between atoms: _170  and  _171
REMARK   75  A    between atoms: _175  and  _176
REMARK   76  A    between atoms: _181  and  _183
REMARK   77  A    between atoms: _183  and  _184
REMARK   78  A    between atoms: _183  and  _186
REMARK   79  A    between atoms: _189  and  _191
REMARK   80  A    between atoms: _191  and  _192
REMARK   81  A    between atoms: _191  and  _194
REMARK   82  A    between atoms: _194  and  _195
REMARK   83  A    between atoms: _200  and  _202
REMARK   84  A    between atoms: _202  and  _203
REMARK   85  A    between atoms: _202  and  _205
REMARK   86  A    between atoms: _205  and  _206
REMARK   87  A    between atoms: _209  and  _211
REMARK   88  A    between atoms: _211  and  _212
REMARK   89  A    between atoms: _211  and  _214
REMARK   90  A    between atoms: _214  and  _215
REMARK   91  A    between atoms: _218  and  _220
REMARK   92  A    between atoms: _220  and  _221
REMARK   93  A    between atoms: _223  and  _225
REMARK   94  A    between atoms: _225  and  _226
REMARK   95  A    between atoms: _225  and  _228
REMARK   96  A    between atoms: _228  and  _229
REMARK   97  A    between atoms: _229  and  _230
REMARK   98  A    between atoms: _230  and  _231
REMARK   99  A    between atoms: _240  and  _242
REMARK  100  A    between atoms: _242  and  _243
REMARK  101  A    between atoms: _242  and  _245
REMARK  102  A    between atoms: _245  and  _246
REMARK  103  A    between atoms: _248  and  _250
REMARK  104  A    between atoms: _250  and  _251
REMARK  105  A    between atoms: _250  and  _253
REMARK  106  A    between atoms: _253  and  _254
REMARK  107  A    between atoms: _254  and  _255
REMARK  108  A    between atoms: _255  and  _256
REMARK  109  A    between atoms: _265  and  _267
REMARK  110  A    between atoms: _267  and  _268
REMARK  111  A    between atoms: _267  and  _270
REMARK  112  A    between atoms: _270  and  _271
REMARK  113  A    between atoms: _274  and  _276
REMARK  114  A    between atoms: _276  and  _277
REMARK  115  A    between atoms: _276  and  _279
REMARK  116  A    between atoms: _279  and  _280
REMARK  117  A    between atoms: _283  and  _285
REMARK  118  A    between atoms: _285  and  _286
REMARK  119  A    between atoms: _285  and  _288
REMARK  120  A    between atoms: _288  and  _289
REMARK  121  A    between atoms: _292  and  _294
REMARK  122  A    between atoms: _294  and  _295
REMARK  123  A    between atoms: _294  and  _297
REMARK  124  A    between atoms: _297  and  _298
REMARK  125  A    between atoms: _301  and  _303
REMARK  126  A    between atoms: _303  and  _304
REMARK  127  A    between atoms: _306  and  _308
REMARK  128  A    between atoms: _308  and  _309
REMARK  129  A    between atoms: _312  and  _314
REMARK  130  A    between atoms: _314  and  _315
REMARK  131  A    between atoms: _314  and  _317
REMARK  132  A    between atoms: _317  and  _318
REMARK  133  A    between atoms: _321  and  _323
REMARK  134  A    between atoms: _323  and  _324
REMARK  135  A    between atoms: _323  and  _326
REMARK  136  A    between atoms: _326  and  _327
REMARK  137  A    between atoms: _330  and  _332
REMARK  138  A    between atoms: _332  and  _333
REMARK  139  A    between atoms: _332  and  _335
REMARK  140  A    between atoms: _335  and  _336
REMARK  141  A    between atoms: _339  and  _341
REMARK  142  A    between atoms: _341  and  _342
REMARK  143  A    between atoms: _341  and  _344
REMARK  144  A    between atoms: _347  and  _349
REMARK  145  A    between atoms: _349  and  _350
REMARK  146  A    between atoms: _349  and  _352
REMARK  147  A    between atoms: _352  and  _353
REMARK  148  A    between atoms: _353  and  _354
REMARK  149  A    between atoms: _356  and  _358
REMARK  150  A    between atoms: _358  and  _359
REMARK  151  A    between atoms: _358  and  _361
REMARK  152  A    between atoms: _361  and  _362
REMARK  153  A    between atoms: _365  and  _367
REMARK  154  A    between atoms: _367  and  _368
REMARK  155  A    between atoms: _370  and  _372
REMARK  156  A    between atoms: _372  and  _373
REMARK  157  A    between atoms: _375  and  _377
REMARK  158  A    between atoms: _377  and  _378
REMARK  159  A    between atoms: _377  and  _380
REMARK  160  A    between atoms: _380  and  _381
REMARK  161  A    between atoms: _384  and  _386
REMARK  162  A    between atoms: _386  and  _387
REMARK  163  A    between atoms: _389  and  _391
REMARK  164  A    between atoms: _391  and  _392
REMARK  165  A    between atoms: _394  and  _396
REMARK  166  A    between atoms: _396  and  _397
REMARK  167  A    between atoms: _396  and  _399
REMARK  168  A    between atoms: _399  and  _400
REMARK  169  A    between atoms: _403  and  _405
REMARK  170  A    between atoms: _405  and  _406
REMARK  171  A    between atoms: _405  and  _408
REMARK  172  A    between atoms: _411  and  _413
REMARK  173  A    between atoms: _413  and  _414
REMARK  174  A    between atoms: _413  and  _416
REMARK  175  A    between atoms: _416  and  _417
REMARK  176  A    between atoms: _421  and  _422
REMARK  177  A    between atoms: _427  and  _429
REMARK  178  A    between atoms: _429  and  _430
REMARK  179  A    between atoms: _429  and  _432
REMARK  180  A    between atoms: _432  and  _433
REMARK  181  A    between atoms: _437  and  _438
REMARK  182  A    between atoms: _443  and  _445
REMARK  183  A    between atoms: _445  and  _446
REMARK  184  A    between atoms: _445  and  _448
REMARK  185  A    between atoms: _451  and  _453
REMARK  186  A    between atoms: _453  and  _454
REMARK  187  A    between atoms: _453  and  _456
REMARK  188  A    between atoms: _456  and  _457
REMARK  189  A    between atoms: _462  and  _464
REMARK  190  A    between atoms: _464  and  _465
REMARK  191  A    between atoms: _464  and  _467
REMARK  192  A    between atoms: _467  and  _468
REMARK  193  A    between atoms: _471  and  _473
REMARK  194  A    between atoms: _473  and  _474
REMARK  195  A    between atoms: _473  and  _476
REMARK  196  A    between atoms: _476  and  _477
REMARK  197  A    between atoms: _480  and  _482
REMARK  198  A    between atoms: _482  and  _483
REMARK  199  A    between atoms: _485  and  _487
REMARK  200  A    between atoms: _487  and  _488
REMARK  201  A    between atoms: _487  and  _490
REMARK  202  A    between atoms: _490  and  _491
REMARK  203  A    between atoms: _491  and  _492
REMARK  204  A    between atoms: _492  and  _493
REMARK  205  A    between atoms: _502  and  _504
REMARK  206  A    between atoms: _504  and  _505
REMARK  207  A    between atoms: _504  and  _507
REMARK  208  A    between atoms: _507  and  _508
REMARK                            x       y       z     vdW  Elec       q    Type
REMARK                         _______ _______ _______ _____ _____    ______ ____
ROOT
ATOM      1  CA  LEU A   1      12.839 -11.917 -12.904  0.00  0.00    +0.133 C 
ENDROOT
BRANCH   1   2
ATOM      2  N   LEU A   1      13.603 -13.124 -13.180  0.00  0.00    -0.239 NA
ATOM      3  H   LEU A   1      13.656 -13.864 -12.451  0.00  0.00    +0.142 HD
ENDBRANCH   1   2
BRANCH   1   4
ATOM      4  C   LEU A   1      13.721 -10.864 -12.243  0.00  0.00    +0.224 C 
ATOM      5  O   LEU A   1      14.536 -11.194 -11.370  0.00  0.00    -0.287 OA
ENDBRANCH   1   4
BRANCH   1   6
ATOM      6  CB  LEU A   1      11.666 -12.254 -11.991  0.00  0.00    +0.025 C 
BRANCH   6   7
ATOM      7  CG  LEU A   1      10.821 -13.449 -12.457  0.00  0.00    +0.002 C 
ATOM      8  CD2 LEU A   1       9.667 -13.673 -11.480  0.00  0.00    +0.000 C 
ATOM      9  CD1 LEU A   1      10.375 -13.181 -13.912  0.00  0.00    +0.000 C 
ENDBRANCH   6   7
ENDBRANCH   1   6
TORSDOF 4
REMARK  Name = ../refined-set-2016/3lzu/3lzu_pocket.pdb
REMARK  208 active torsions:
REMARK  status: ('A' for Active; 'I' for Inactive)
REMARK    1  A    between atoms: _1  and  _3
REMARK    2  A    between atoms: _3  and  _4
REMARK    3  A    between atoms: _3  and  _6
REMARK    4  A    between atoms: _6  and  _7
REMARK    5  A    between atoms: _7  and  _8
REMARK    6  A    between atoms: _8  and  _9
REMARK    7  A    between atoms: _18  and  _20
REMARK    8  A    between atoms: _20  and  _21
REMARK    9  A    between atoms: _20  and  _23
REMARK   10  A    between atoms: _23  and  _24
REMARK   11  A    between atoms: _27  and  _29
REMARK   12  A    between atoms: _29  and  _30
REMARK   13  A    between atoms: _29  and  _32
REMARK   14  A    between atoms: _32  and  _33
REMARK   15  A    between atoms: _36  and  _38
REMARK   16  A    between atoms: _38  and  _39
REMARK   17  A    between atoms: _38  and  _41
REMARK   18  A    between atoms: _41  and  _42
REMARK   19  A    between atoms: _45  and  _47
REMARK   20  A    between atoms: _47  and  _48
REMARK   21  A    between atoms: _47  and  _50
REMARK   22  A    between atoms: _50  and  _51
REMARK   23  A    between atoms: _54  and  _56
REMARK   24  A    between atoms: _56  and  _57
REMARK   25  A    between atoms: _59  and  _61
REMARK   26  A    between atoms: _61  and  _62
REMARK   27  A    between atoms: _65  and  _67
REMARK   28  A    between atoms: _67  and  _68
REMARK   29  A    between atoms: _67  and  _70
REMARK   30  A    between atoms: _70  and  _71
REMARK   31  A    between atoms: _74  and  _76
REMARK   32  A    between atoms: _76  and  _77
REMARK   33  A    between atoms: _76  and  _79
REMARK   34  A    between atoms: _79  and  _80
REMARK   35  A    between atoms: _83  and  _85
REMARK   36  A    between atoms: _85  and  _86
REMARK   37  A    between atoms: _85  and  _88
REMARK   38  A    between atoms: _88  and  _89
REMARK   39  A    between atoms: _92  and  _94
REMARK   40  A    between atoms: _94  and  _95
REMARK   41  A    between atoms: _94  and  _97
REMARK   42  A    between atoms: _100  and  _102
REMARK   43  A    between atoms: _102  and  _103
REMARK   44  A    between atoms: _102  and  _105
REMARK   45  A    between atoms: _105  and  _106
REMARK   46  A    between atoms: _106  and  _107
REMARK   47  A    between atoms: _109  and  _111
REMARK   48  A    between atoms: _111  and  _112
REMARK   49  A    between atoms: _111  and  _114
REMARK   50  A    between atoms: _114  and  _115
REMARK   51  A    between atoms: _118  and  _120
REMARK   52  A    between atoms: _120  and  _121
REMARK   53  A    between atoms: _123  and  _125
REMARK   54  A    between atoms: _125  and  _126
REMARK   55  A    between atoms: _128  and  _130
REMARK   56  A    between atoms: _130  and  _131
REMARK   57  A    between atoms: _130  and  _133
REMARK   58  A    between atoms: _133  and  _134
REMARK   59  A    between atoms: _137  and  _139
REMARK   60  A    between atoms: _139  and  _140
REMARK   61  A    between atoms: _142  and  _144
REMARK   62  A    between atoms: _144  and  _145
REMARK   63  A    between atoms: _147  and  _149
REMARK   64  A    between atoms: _149  and  _150
REMARK   65  A    between atoms: _149  and  _152
REMARK   66  A    between atoms: _152  and  _153
REMARK   67  A    between atoms: _156  and  _158
REMARK   68  A    between atoms: _158  and  _159
REMARK   69  A    between atoms: _158  and  _161
REMARK   70  A    between atoms: _161  and  _162
REMARK   71  A    between atoms: _165  and  _167
REMARK   72  A    between atoms: _167  and  _168
REMARK   73  A    between atoms: _167  and  _170
REMARK   74  A    between atoms: _170  and  _171
REMARK   75  A    between atoms: _175  and  _176
REMARK   76  A    between atoms: _181  and  _183
REMARK   77  A    between atoms: _183  and  _184
REMARK   78  A    between atoms: _183  and  _186
REMARK   79  A    between atoms: _189  and  _191
REMARK   80  A    between atoms: _191  and  _192
REMARK   81  A    between atoms: _191  and  _194
REMARK   82  A    between atoms: _194  and  _195
REMARK   83  A    between atoms: _200  and  _202
REMARK   84  A    between atoms: _202  and  _203
REMARK   85  A    between atoms: _202  and  _205
REMARK   86  A    between atoms: _205  and  _206
REMARK   87  A    between atoms: _209  and  _211
REMARK   88  A    between atoms: _211  and  _212
REMARK   89  A    between atoms: _211  and  _214
REMARK   90  A    between atoms: _214  and  _215
REMARK   91  A    between atoms: _218  and  _220
REMARK   92  A    between atoms: _220  and  _221
REMARK   93  A    between atoms: _223  and  _225
REMARK   94  A    between atoms: _225  and  _226
REMARK   95  A    between atoms: _225  and  _228
REMARK   96  A    between atoms: _228  and  _229
REMARK   97  A    between atoms: _229  and  _230
REMARK   98  A    between atoms: _230  and  _231
REMARK   99  A    between atoms: _240  and  _242
REMARK  100  A    between atoms: _242  and  _243
REMARK  101  A    between atoms: _242  and  _245
REMARK  102  A    between atoms: _245  and  _246
REMARK  103  A    between atoms: _248  and  _250
REMARK  104  A    between atoms: _250  and  _251
REMARK  105  A    between atoms: _250  and  _253
REMARK  106  A    between atoms: _253  and  _254
REMARK  107  A    between atoms: _254  and  _255
REMARK  108  A    between atoms: _255  and  _256
REMARK  109  A    between atoms: _265  and  _267
REMARK  110  A    between atoms: _267  and  _268
REMARK  111  A    between atoms: _267  and  _270
REMARK  112  A    between atoms: _270  and  _271
REMARK  113  A    between atoms: _274  and  _276
REMARK  114  A    between atoms: _276  and  _277
REMARK  115  A    between atoms: _276  and  _279
REMARK  116  A    between atoms: _279  and  _280
REMARK  117  A    between atoms: _283  and  _285
REMARK  118  A    between atoms: _285  and  _286
REMARK  119  A    between atoms: _285  and  _288
REMARK  120  A    between atoms: _288  and  _289
REMARK  121  A    between atoms: _292  and  _294
REMARK  122  A    between atoms: _294  and  _295
REMARK  123  A    between atoms: _294  and  _297
REMARK  124  A    between atoms: _297  and  _298
REMARK  125  A    between atoms: _301  and  _303
REMARK  126  A    between atoms: _303  and  _304
REMARK  127  A    between atoms: _306  and  _308
REMARK  128  A    between atoms: _308  and  _309
REMARK  129  A    between atoms: _312  and  _314
REMARK  130  A    between atoms: _314  and  _315
REMARK  131  A    between atoms: _314  and  _317
REMARK  132  A    between atoms: _317  and  _318
REMARK  133  A    between atoms: _321  and  _323
REMARK  134  A    between atoms: _323  and  _324
REMARK  135  A    between atoms: _323  and  _326
REMARK  136  A    between atoms: _326  and  _327
REMARK  137  A    between atoms: _330  and  _332
REMARK  138  A    between atoms: _332  and  _333
REMARK  139  A    between atoms: _332  and  _335
REMARK  140  A    between atoms: _335  and  _336
REMARK  141  A    between atoms: _339  and  _341
REMARK  142  A    between atoms: _341  and  _342
REMARK  143  A    between atoms: _341  and  _344
REMARK  144  A    between atoms: _347  and  _349
REMARK  145  A    between atoms: _349  and  _350
REMARK  146  A    between atoms: _349  and  _352
REMARK  147  A    between atoms: _352  and  _353
REMARK  148  A    between atoms: _353  and  _354
REMARK  149  A    between atoms: _356  and  _358
REMARK  150  A    between atoms: _358  and  _359
REMARK  151  A    between atoms: _358  and  _361
REMARK  152  A    between atoms: _361  and  _362
REMARK  153  A    between atoms: _365  and  _367
REMARK  154  A    between atoms: _367  and  _368
REMARK  155  A    between atoms: _370  and  _372
REMARK  156  A    between atoms: _372  and  _373
REMARK  157  A    between atoms: _375  and  _377
REMARK  158  A    between atoms: _377  and  _378
REMARK  159  A    between atoms: _377  and  _380
REMARK  160  A    between atoms: _380  and  _381
REMARK  161  A    between atoms: _384  and  _386
REMARK  162  A    between atoms: _386  and  _387
REMARK  163  A    between atoms: _389  and  _391
REMARK  164  A    between atoms: _391  and  _392
REMARK  165  A    between atoms: _394  and  _396
REMARK  166  A    between atoms: _396  and  _397
REMARK  167  A    between atoms: _396  and  _399
REMARK  168  A    between atoms: _399  and  _400
REMARK  169  A    between atoms: _403  and  _405
REMARK  170  A    between atoms: _405  and  _406
REMARK  171  A    between atoms: _405  and  _408
REMARK  172  A    between atoms: _411  and  _413
REMARK  173  A    between atoms: _413  and  _414
REMARK  174  A    between atoms: _413  and  _416
REMARK  175  A    between atoms: _416  and  _417
REMARK  176  A    between atoms: _421  and  _422
REMARK  177  A    between atoms: _427  and  _429
REMARK  178  A    between atoms: _429  and  _430
REMARK  179  A    between atoms: _429  and  _432
REMARK  180  A    between atoms: _432  and  _433
REMARK  181  A    between atoms: _437  and  _438
REMARK  182  A    between atoms: _443  and  _445
REMARK  183  A    between atoms: _445  and  _446
REMARK  184  A    between atoms: _445  and  _448
REMARK  185  A    between atoms: _451  and  _453
REMARK  186  A    between atoms: _453  and  _454
REMARK  187  A    between atoms: _453  and  _456
REMARK  188  A    between atoms: _456  and  _457
REMARK  189  A    between atoms: _462  and  _464
REMARK  190  A    between atoms: _464  and  _465
REMARK  191  A    between atoms: _464  and  _467
REMARK  192  A    between atoms: _467  and  _468
REMARK  193  A    between atoms: _471  and  _473
REMARK  194  A    between atoms: _473  and  _474
REMARK  195  A    between atoms: _473  and  _476
REMARK  196  A    between atoms: _476  and  _477
REMARK  197  A    between atoms: _480  and  _482
REMARK  198  A    between atoms: _482  and  _483
REMARK  199  A    between atoms: _485  and  _487
REMARK  200  A    between atoms: _487  and  _488
REMARK  201  A    between atoms: _487  and  _490
REMARK  202  A    between atoms: _490  and  _491
REMARK  203  A    between atoms: _491  and  _492
REMARK  204  A    between atoms: _492  and  _493
REMARK  205  A    between atoms: _502  and  _504
REMARK  206  A    between atoms: _504  and  _505
REMARK  207  A    between atoms: _504  and  _507
REMARK  208  A    between atoms: _507  and  _508
REMARK                            x       y       z     vdW  Elec       q    Type
REMARK                         _______ _______ _______ _____ _____    ______ ____
ROOT
ATOM      1  CA  ILE A   6      16.436 -15.560  -4.643  0.00  0.00    +0.149 C 
ENDROOT
BRANCH   1   2
ATOM      2  C   ILE A   6      16.550 -16.424  -5.902  0.00  0.00    +0.241 C 
ATOM      3  N   ILE A   7      17.035 -17.648  -5.712  0.00  0.00    -0.297 N 
ATOM      4  H   ILE A   7      17.389 -17.899  -4.767  0.00  0.00    +0.150 HD
ATOM      5  O   ILE A   6      16.241 -15.984  -7.018  0.00  0.00    -0.273 OA
BRANCH   3   6
ATOM      6  CA  ILE A   7      17.094 -18.656  -6.765  0.00  0.00    +0.149 C 
BRANCH   6   7
ATOM      7  C   ILE A   7      15.901 -19.575  -6.522  0.00  0.00    +0.241 C 
ATOM      8  O   ILE A   7      15.809 -20.240  -5.487  0.00  0.00    -0.273 OA
ATOM      9  N   GLY A   8      14.994 -19.619  -7.497  0.00  0.00    -0.295 N 
ATOM     10  H   GLY A   8      15.186 -19.104  -8.380  0.00  0.00    +0.150 HD
BRANCH   9  11
ATOM     11  CA  GLY A   8      13.754 -20.353  -7.379  0.00  0.00    +0.176 C 
BRANCH  11  12
ATOM     12  C   GLY A   8      13.815 -21.725  -8.012  0.00  0.00    +0.243 C 
ATOM     13  N   ARG A   9      12.710 -22.454  -7.891  0.00  0.00    -0.297 N 
ATOM     14  H   ARG A   9      11.844 -22.019  -7.513  0.00  0.00    +0.150 HD
ATOM     15  O   GLY A   8      14.814 -22.076  -8.657  0.00  0.00    -0.273 OA
BRANCH  13  16
ATOM     16  CA  ARG A   9      12.702 -23.862  -8.285  0.00  0.00    +0.149 C 
BRANCH  16  17
ATOM     17  C   ARG A   9      12.991 -24.053  -9.783  0.00  0.00    +0.241 C 
ATOM     18  O   ARG A   9      13.604 -25.054 -10.151  0.00  0.00    -0.273 OA
ATOM     19  N   SER A  10      12.588 -23.106 -10.632  0.00  0.00    -0.296 N 
ATOM     20  H   SER A  10      12.082 -22.275 -10.264  0.00  0.00    +0.150 HD
BRANCH  19  21
ATOM     21  CA  SER A  10      12.844 -23.211 -12.074  0.00  0.00    +0.166 C 
BRANCH  21  22
ATOM     22  CB  SER A  10      14.331 -23.385 -12.403  0.00  0.00    +0.229 C 
ATOM     23  OG  SER A  10      14.683 -24.032 -13.391  0.00  0.00    -0.286 OA
ENDBRANCH  21  22
BRANCH  21  24
ATOM     24  C   SER A  10      12.248 -22.013 -12.831  0.00  0.00    +0.165 C 
BRANCH  24  25
ATOM     25  O   SER A  10      12.514 -20.785 -12.177  0.00  0.00    -0.380 OA
ATOM     26  H   SER A  10      12.120 -20.804 -11.269  0.00  0.00    +0.211 HD
ENDBRANCH  24  25
ENDBRANCH  21  24
ENDBRANCH  19  21
ENDBRANCH  16  17
BRANCH  16  27
ATOM     27  CB  ARG A   9      11.389 -24.543  -7.910  0.00  0.00    +0.033 C 
BRANCH  27  28
ATOM     28  CG  ARG A   9      11.121 -24.773  -6.406  0.00  0.00    +0.045 C 
BRANCH  28  29
ATOM     29  CD  ARG A   9       9.825 -25.531  -6.135  0.00  0.00    +0.174 C 
BRANCH  29  30
ATOM     30  NE  ARG A   9       8.619 -24.871  -6.654  0.00  0.00    -0.265 N 
ATOM     31  HE  ARG A   9       8.202 -24.118  -6.070  0.00  0.00    +0.259 HD
ATOM     32  CZ  ARG A   9       8.012 -25.152  -7.807  0.00  0.00    +0.342 C 
ATOM     33  NH2 ARG A   9       6.940 -24.459  -8.159  0.00  0.00    -0.292 N 
ATOM     34 HH21 ARG A   9       6.581 -23.706  -7.538  0.00  0.00    +0.255 HD
ATOM     35 HH22 ARG A   9       6.457 -24.668  -9.056  0.00  0.00    +0.255 HD
ATOM     36  NH1 ARG A   9       8.415 -26.132  -8.616  0.00  0.00    -0.292 N 
ATOM     37 HH11 ARG A   9       9.236 -26.716  -8.357  0.00  0.00    +0.255 HD
ATOM     38 HH12 ARG A   9       7.908 -26.313  -9.506  0.00  0.00    +0.255 HD
ENDBRANCH  29  30
ENDBRANCH  28  29
ENDBRANCH  27  28
ENDBRANCH  16  27
ENDBRANCH  13  16
ENDBRANCH  11  12
ENDBRANCH   9  11
ENDBRANCH   6   7
BRANCH   6  39
ATOM     39  CB  ILE A   7      18.395 -19.501  -6.754  0.00  0.00    +0.027 C 
ATOM     40  CG2 ILE A   7      18.385 -20.550  -7.940  0.00  0.00    +0.002 C 
BRANCH  39  41
ATOM     41  CG1 ILE A   7      19.654 -18.628  -6.810  0.00  0.00    +0.002 C 
ATOM     42  CD1 ILE A   7      19.672 -17.568  -7.908  0.00  0.00    +0.000 C 
ENDBRANCH  39  41
ENDBRANCH   6  39
ENDBRANCH   3   6
ENDBRANCH   1   2
BRANCH   1  45
ATOM     43  C   ASN A   5      17.755 -13.623  -4.059  0.00  0.00    +0.241 C 
ATOM     44  O   ASN A   5      18.284 -14.222  -3.116  0.00  0.00    -0.273 OA
ATOM     45  N   ILE A   6      16.925 -14.214  -4.908  0.00  0.00    -0.297 N 
ATOM     46  H   ILE A   6      16.622 -13.714  -5.768  0.00  0.00    +0.150 HD
BRANCH  43  47
ATOM     47  CA  ASN A   5      18.095 -12.152  -4.337  0.00  0.00    +0.158 C 
BRANCH  47  50
ATOM     48  C   VAL A   4      16.821 -11.188  -2.506  0.00  0.00    +0.241 C 
ATOM     49  O   VAL A   4      15.773 -11.570  -3.019  0.00  0.00    -0.273 OA
ATOM     50  N   ASN A   5      18.000 -11.373  -3.099  0.00  0.00    -0.297 N 
ATOM     51  H   ASN A   5      18.859 -10.962  -2.680  0.00  0.00    +0.150 HD
BRANCH  48  52
ATOM     52  CA  VAL A   4      16.787 -10.464  -1.165  0.00  0.00    +0.149 C 
BRANCH  52  55
ATOM     53  C   PRO A   3      15.764  -8.294  -0.609  0.00  0.00    +0.241 C 
ATOM     54  O   PRO A   3      16.751  -7.895   0.013  0.00  0.00    -0.273 OA
ATOM     55  N   VAL A   4      15.715  -9.469  -1.232  0.00  0.00    -0.297 N 
ATOM     56  H   VAL A   4      14.870  -9.692  -1.796  0.00  0.00    +0.150 HD
BRANCH  53  59
ATOM     57  C   THR A   2      13.897  -7.546  -3.045  0.00  0.00    +0.246 C 
ATOM     58  N   PRO A   3      13.564  -7.740  -1.761  0.00  0.00    -0.272 N 
ATOM     59  CA  PRO A   3      14.520  -7.409  -0.699  0.00  0.00    +0.152 C 
ATOM     60  CB  PRO A   3      13.680  -7.556   0.574  0.00  0.00    +0.031 C 
ATOM     61  CG  PRO A   3      12.605  -8.471   0.216  0.00  0.00    +0.024 C 
ATOM     62  CD  PRO A   3      12.268  -8.154  -1.199  0.00  0.00    +0.094 C 
ATOM     63  O   THR A   2      14.941  -6.999  -3.369  0.00  0.00    -0.273 OA
BRANCH  57  64
ATOM     64  CA  THR A   2      12.906  -7.992  -4.114  0.00  0.00    +0.176 C 
BRANCH  64  67
ATOM     65  C   PRO A   1      12.304  -5.830  -5.038  0.00  0.00    +0.239 C 
ATOM     66  O   PRO A   1      11.655  -5.527  -4.029  0.00  0.00    -0.274 OA
ATOM     67  N   THR A   2      12.849  -7.031  -5.213  0.00  0.00    -0.295 N 
ATOM     68  H   THR A   2      13.239  -7.289  -6.142  0.00  0.00    +0.150 HD
BRANCH  65  70
ATOM     69  N   PRO A   1      12.235  -5.214  -7.492  0.00  0.00    -0.210 NA
ATOM     70  CA  PRO A   1      12.525  -4.788  -6.128  0.00  0.00    +0.149 C 
ATOM     71  CB  PRO A   1      11.564  -3.610  -5.941  0.00  0.00    +0.028 C 
ATOM     72  CG  PRO A   1      10.387  -3.973  -6.772  0.00  0.00    +0.021 C 
ATOM     73  CD  PRO A   1      11.001  -4.583  -8.001  0.00  0.00    +0.089 C 
ENDBRANCH  65  70
ENDBRANCH  64  67
BRANCH  64  74
ATOM     74  CB  THR A   2      13.300  -9.420  -4.579  0.00  0.00    +0.137 C 
ATOM     75  CG2 THR A   2      14.628  -9.430  -5.321  0.00  0.00    +0.034 C 
BRANCH  74  76
ATOM     76  OG1 THR A   2      13.396 -10.281  -3.436  0.00  0.00    -0.382 OA
ATOM     77  HG1 THR A   2      13.647 -11.192  -3.731  0.00  0.00    +0.210 HD
ENDBRANCH  74  76
ENDBRANCH  64  74
ENDBRANCH  57  64
ENDBRANCH  53  59
ENDBRANCH  52  55
BRANCH  52  78
ATOM     78  CB  VAL A   4      16.500 -11.507  -0.050  0.00  0.00    +0.027 C 
ATOM     79  CG2 VAL A   4      16.384 -10.848   1.344  0.00  0.00    +0.002 C 
ATOM     80  CG1 VAL A   4      17.551 -12.632  -0.062  0.00  0.00    +0.002 C 
ENDBRANCH  52  78
ENDBRANCH  48  52
ENDBRANCH  47  50
BRANCH  47  81
ATOM     81  CB  ASN A   5      19.501 -12.124  -4.910  0.00  0.00    +0.114 C 
BRANCH  81  82
ATOM     82  CG  ASN A   5      19.952 -10.740  -5.335  0.00  0.00    +0.222 C 
ATOM     83  ND2 ASN A   5      21.254 -10.482  -5.249  0.00  0.00    -0.329 N 
ATOM     84 HD21 ASN A   5      21.903 -11.202  -4.871  0.00  0.00    +0.145 HD
ATOM     85 HD22 ASN A   5      21.623  -9.561  -5.560  0.00  0.00    +0.145 HD
ATOM     86  OD1 ASN A   5      19.142  -9.932  -5.771  0.00  0.00    -0.275 OA
ENDBRANCH  81  82
ENDBRANCH  47  81
ENDBRANCH  43  47
ENDBRANCH   1  45
BRANCH   1  87
ATOM     87  CB  ILE A   6      14.981 -15.551  -4.081  0.00  0.00    +0.027 C 
ATOM     88  CG2 ILE A   6      14.871 -14.813  -2.718  0.00  0.00    +0.002 C 
BRANCH  87  89
ATOM     89  CG1 ILE A   6      14.000 -14.952  -5.069  0.00  0.00    +0.002 C 
ATOM     90  CD1 ILE A   6      12.610 -14.774  -4.472  0.00  0.00    +0.000 C 
ENDBRANCH  87  89
ENDBRANCH   1  87
TORSDOF 33
REMARK  Name = ../refined-set-2016/3lzu/3lzu_pocket.pdb
REMARK  208 active torsions:
REMARK  status: ('A' for Active; 'I' for Inactive)
REMARK    1  A    between atoms: _1  and  _3
REMARK    2  A    between atoms: _3  and  _4
REMARK    3  A    between atoms: _3  and  _6
REMARK    4  A    between atoms: _6  and  _7
REMARK    5  A    between atoms: _7  and  _8
REMARK    6  A    between atoms: _8  and  _9
REMARK    7  A    between atoms: _18  and  _20
REMARK    8  A    between atoms: _20  and  _21
REMARK    9  A    between atoms: _20  and  _23
REMARK   10  A    between atoms: _23  and  _24
REMARK   11  A    between atoms: _27  and  _29
REMARK   12  A    between atoms: _29  and  _30
REMARK   13  A    between atoms: _29  and  _32
REMARK   14  A    between atoms: _32  and  _33
REMARK   15  A    between atoms: _36  and  _38
REMARK   16  A    between atoms: _38  and  _39
REMARK   17  A    between atoms: _38  and  _41
REMARK   18  A    between atoms: _41  and  _42
REMARK   19  A    between atoms: _45  and  _47
REMARK   20  A    between atoms: _47  and  _48
REMARK   21  A    between atoms: _47  and  _50
REMARK   22  A    between atoms: _50  and  _51
REMARK   23  A    between atoms: _54  and  _56
REMARK   24  A    between atoms: _56  and  _57
REMARK   25  A    between atoms: _59  and  _61
REMARK   26  A    between atoms: _61  and  _62
REMARK   27  A    between atoms: _65  and  _67
REMARK   28  A    between atoms: _67  and  _68
REMARK   29  A    between atoms: _67  and  _70
REMARK   30  A    between atoms: _70  and  _71
REMARK   31  A    between atoms: _74  and  _76
REMARK   32  A    between atoms: _76  and  _77
REMARK   33  A    between atoms: _76  and  _79
REMARK   34  A    between atoms: _79  and  _80
REMARK   35  A    between atoms: _83  and  _85
REMARK   36  A    between atoms: _85  and  _86
REMARK   37  A    between atoms: _85  and  _88
REMARK   38  A    between atoms: _88  and  _89
REMARK   39  A    between atoms: _92  and  _94
REMARK   40  A    between atoms: _94  and  _95
REMARK   41  A    between atoms: _94  and  _97
REMARK   42  A    between atoms: _100  and  _102
REMARK   43  A    between atoms: _102  and  _103
REMARK   44  A    between atoms: _102  and  _105
REMARK   45  A    between atoms: _105  and  _106
REMARK   46  A    between atoms: _106  and  _107
REMARK   47  A    between atoms: _109  and  _111
REMARK   48  A    between atoms: _111  and  _112
REMARK   49  A    between atoms: _111  and  _114
REMARK   50  A    between atoms: _114  and  _115
REMARK   51  A    between atoms: _118  and  _120
REMARK   52  A    between atoms: _120  and  _121
REMARK   53  A    between atoms: _123  and  _125
REMARK   54  A    between atoms: _125  and  _126
REMARK   55  A    between atoms: _128  and  _130
REMARK   56  A    between atoms: _130  and  _131
REMARK   57  A    between atoms: _130  and  _133
REMARK   58  A    between atoms: _133  and  _134
REMARK   59  A    between atoms: _137  and  _139
REMARK   60  A    between atoms: _139  and  _140
REMARK   61  A    between atoms: _142  and  _144
REMARK   62  A    between atoms: _144  and  _145
REMARK   63  A    between atoms: _147  and  _149
REMARK   64  A    between atoms: _149  and  _150
REMARK   65  A    between atoms: _149  and  _152
REMARK   66  A    between atoms: _152  and  _153
REMARK   67  A    between atoms: _156  and  _158
REMARK   68  A    between atoms: _158  and  _159
REMARK   69  A    between atoms: _158  and  _161
REMARK   70  A    between atoms: _161  and  _162
REMARK   71  A    between atoms: _165  and  _167
REMARK   72  A    between atoms: _167  and  _168
REMARK   73  A    between atoms: _167  and  _170
REMARK   74  A    between atoms: _170  and  _171
REMARK   75  A    between atoms: _175  and  _176
REMARK   76  A    between atoms: _181  and  _183
REMARK   77  A    between atoms: _183  and  _184
REMARK   78  A    between atoms: _183  and  _186
REMARK   79  A    between atoms: _189  and  _191
REMARK   80  A    between atoms: _191  and  _192
REMARK   81  A    between atoms: _191  and  _194
REMARK   82  A    between atoms: _194  and  _195
REMARK   83  A    between atoms: _200  and  _202
REMARK   84  A    between atoms: _202  and  _203
REMARK   85  A    between atoms: _202  and  _205
REMARK   86  A    between atoms: _205  and  _206
REMARK   87  A    between atoms: _209  and  _211
REMARK   88  A    between atoms: _211  and  _212
REMARK   89  A    between atoms: _211  and  _214
REMARK   90  A    between atoms: _214  and  _215
REMARK   91  A    between atoms: _218  and  _220
REMARK   92  A    between atoms: _220  and  _221
REMARK   93  A    between atoms: _223  and  _225
REMARK   94  A    between atoms: _225  and  _226
REMARK   95  A    between atoms: _225  and  _228
REMARK   96  A    between atoms: _228  and  _229
REMARK   97  A    between atoms: _229  and  _230
REMARK   98  A    between atoms: _230  and  _231
REMARK   99  A    between atoms: _240  and  _242
REMARK  100  A    between atoms: _242  and  _243
REMARK  101  A    between atoms: _242  and  _245
REMARK  102  A    between atoms: _245  and  _246
REMARK  103  A    between atoms: _248  and  _250
REMARK  104  A    between atoms: _250  and  _251
REMARK  105  A    between atoms: _250  and  _253
REMARK  106  A    between atoms: _253  and  _254
REMARK  107  A    between atoms: _254  and  _255
REMARK  108  A    between atoms: _255  and  _256
REMARK  109  A    between atoms: _265  and  _267
REMARK  110  A    between atoms: _267  and  _268
REMARK  111  A    between atoms: _267  and  _270
REMARK  112  A    between atoms: _270  and  _271
REMARK  113  A    between atoms: _274  and  _276
REMARK  114  A    between atoms: _276  and  _277
REMARK  115  A    between atoms: _276  and  _279
REMARK  116  A    between atoms: _279  and  _280
REMARK  117  A    between atoms: _283  and  _285
REMARK  118  A    between atoms: _285  and  _286
REMARK  119  A    between atoms: _285  and  _288
REMARK  120  A    between atoms: _288  and  _289
REMARK  121  A    between atoms: _292  and  _294
REMARK  122  A    between atoms: _294  and  _295
REMARK  123  A    between atoms: _294  and  _297
REMARK  124  A    between atoms: _297  and  _298
REMARK  125  A    between atoms: _301  and  _303
REMARK  126  A    between atoms: _303  and  _304
REMARK  127  A    between atoms: _306  and  _308
REMARK  128  A    between atoms: _308  and  _309
REMARK  129  A    between atoms: _312  and  _314
REMARK  130  A    between atoms: _314  and  _315
REMARK  131  A    between atoms: _314  and  _317
REMARK  132  A    between atoms: _317  and  _318
REMARK  133  A    between atoms: _321  and  _323
REMARK  134  A    between atoms: _323  and  _324
REMARK  135  A    between atoms: _323  and  _326
REMARK  136  A    between atoms: _326  and  _327
REMARK  137  A    between atoms: _330  and  _332
REMARK  138  A    between atoms: _332  and  _333
REMARK  139  A    between atoms: _332  and  _335
REMARK  140  A    between atoms: _335  and  _336
REMARK  141  A    between atoms: _339  and  _341
REMARK  142  A    between atoms: _341  and  _342
REMARK  143  A    between atoms: _341  and  _344
REMARK  144  A    between atoms: _347  and  _349
REMARK  145  A    between atoms: _349  and  _350
REMARK  146  A    between atoms: _349  and  _352
REMARK  147  A    between atoms: _352  and  _353
REMARK  148  A    between atoms: _353  and  _354
REMARK  149  A    between atoms: _356  and  _358
REMARK  150  A    between atoms: _358  and  _359
REMARK  151  A    between atoms: _358  and  _361
REMARK  152  A    between atoms: _361  and  _362
REMARK  153  A    between atoms: _365  and  _367
REMARK  154  A    between atoms: _367  and  _368
REMARK  155  A    between atoms: _370  and  _372
REMARK  156  A    between atoms: _372  and  _373
REMARK  157  A    between atoms: _375  and  _377
REMARK  158  A    between atoms: _377  and  _378
REMARK  159  A    between atoms: _377  and  _380
REMARK  160  A    between atoms: _380  and  _381
REMARK  161  A    between atoms: _384  and  _386
REMARK  162  A    between atoms: _386  and  _387
REMARK  163  A    between atoms: _389  and  _391
REMARK  164  A    between atoms: _391  and  _392
REMARK  165  A    between atoms: _394  and  _396
REMARK  166  A    between atoms: _396  and  _397
REMARK  167  A    between atoms: _396  and  _399
REMARK  168  A    between atoms: _399  and  _400
REMARK  169  A    between atoms: _403  and  _405
REMARK  170  A    between atoms: _405  and  _406
REMARK  171  A    between atoms: _405  and  _408
REMARK  172  A    between atoms: _411  and  _413
REMARK  173  A    between atoms: _413  and  _414
REMARK  174  A    between atoms: _413  and  _416
REMARK  175  A    between atoms: _416  and  _417
REMARK  176  A    between atoms: _421  and  _422
REMARK  177  A    between atoms: _427  and  _429
REMARK  178  A    between atoms: _429  and  _430
REMARK  179  A    between atoms: _429  and  _432
REMARK  180  A    between atoms: _432  and  _433
REMARK  181  A    between atoms: _437  and  _438
REMARK  182  A    between atoms: _443  and  _445
REMARK  183  A    between atoms: _445  and  _446
REMARK  184  A    between atoms: _445  and  _448
REMARK  185  A    between atoms: _451  and  _453
REMARK  186  A    between atoms: _453  and  _454
REMARK  187  A    between atoms: _453  and  _456
REMARK  188  A    between atoms: _456  and  _457
REMARK  189  A    between atoms: _462  and  _464
REMARK  190  A    between atoms: _464  and  _465
REMARK  191  A    between atoms: _464  and  _467
REMARK  192  A    between atoms: _467  and  _468
REMARK  193  A    between atoms: _471  and  _473
REMARK  194  A    between atoms: _473  and  _474
REMARK  195  A    between atoms: _473  and  _476
REMARK  196  A    between atoms: _476  and  _477
REMARK  197  A    between atoms: _480  and  _482
REMARK  198  A    between atoms: _482  and  _483
REMARK  199  A    between atoms: _485  and  _487
REMARK  200  A    between atoms: _487  and  _488
REMARK  201  A    between atoms: _487  and  _490
REMARK  202  A    between atoms: _490  and  _491
REMARK  203  A    between atoms: _491  and  _492
REMARK  204  A    between atoms: _492  and  _493
REMARK  205  A    between atoms: _502  and  _504
REMARK  206  A    between atoms: _504  and  _505
REMARK  207  A    between atoms: _504  and  _507
REMARK  208  A    between atoms: _507  and  _508
REMARK                            x       y       z     vdW  Elec       q    Type
REMARK                         _______ _______ _______ _____ _____    ______ ____
ROOT
ATOM      1  O   HOH     1      16.488 -18.653   4.683  0.00  0.00    +0.000 OA
ENDROOT
TORSDOF 0
REMARK  Name = ../refined-set-2016/3lzu/3lzu_pocket.pdb
REMARK  208 active torsions:
REMARK  status: ('A' for Active; 'I' for Inactive)
REMARK    1  A    between atoms: _1  and  _3
REMARK    2  A    between atoms: _3  and  _4
REMARK    3  A    between atoms: _3  and  _6
REMARK    4  A    between atoms: _6  and  _7
REMARK    5  A    between atoms: _7  and  _8
REMARK    6  A    between atoms: _8  and  _9
REMARK    7  A    between atoms: _18  and  _20
REMARK    8  A    between atoms: _20  and  _21
REMARK    9  A    between atoms: _20  and  _23
REMARK   10  A    between atoms: _23  and  _24
REMARK   11  A    between atoms: _27  and  _29
REMARK   12  A    between atoms: _29  and  _30
REMARK   13  A    between atoms: _29  and  _32
REMARK   14  A    between atoms: _32  and  _33
REMARK   15  A    between atoms: _36  and  _38
REMARK   16  A    between atoms: _38  and  _39
REMARK   17  A    between atoms: _38  and  _41
REMARK   18  A    between atoms: _41  and  _42
REMARK   19  A    between atoms: _45  and  _47
REMARK   20  A    between atoms: _47  and  _48
REMARK   21  A    between atoms: _47  and  _50
REMARK   22  A    between atoms: _50  and  _51
REMARK   23  A    between atoms: _54  and  _56
REMARK   24  A    between atoms: _56  and  _57
REMARK   25  A    between atoms: _59  and  _61
REMARK   26  A    between atoms: _61  and  _62
REMARK   27  A    between atoms: _65  and  _67
REMARK   28  A    between atoms: _67  and  _68
REMARK   29  A    between atoms: _67  and  _70
REMARK   30  A    between atoms: _70  and  _71
REMARK   31  A    between atoms: _74  and  _76
REMARK   32  A    between atoms: _76  and  _77
REMARK   33  A    between atoms: _76  and  _79
REMARK   34  A    between atoms: _79  and  _80
REMARK   35  A    between atoms: _83  and  _85
REMARK   36  A    between atoms: _85  and  _86
REMARK   37  A    between atoms: _85  and  _88
REMARK   38  A    between atoms: _88  and  _89
REMARK   39  A    between atoms: _92  and  _94
REMARK   40  A    between atoms: _94  and  _95
REMARK   41  A    between atoms: _94  and  _97
REMARK   42  A    between atoms: _100  and  _102
REMARK   43  A    between atoms: _102  and  _103
REMARK   44  A    between atoms: _102  and  _105
REMARK   45  A    between atoms: _105  and  _106
REMARK   46  A    between atoms: _106  and  _107
REMARK   47  A    between atoms: _109  and  _111
REMARK   48  A    between atoms: _111  and  _112
REMARK   49  A    between atoms: _111  and  _114
REMARK   50  A    between atoms: _114  and  _115
REMARK   51  A    between atoms: _118  and  _120
REMARK   52  A    between atoms: _120  and  _121
REMARK   53  A    between atoms: _123  and  _125
REMARK   54  A    between atoms: _125  and  _126
REMARK   55  A    between atoms: _128  and  _130
REMARK   56  A    between atoms: _130  and  _131
REMARK   57  A    between atoms: _130  and  _133
REMARK   58  A    between atoms: _133  and  _134
REMARK   59  A    between atoms: _137  and  _139
REMARK   60  A    between atoms: _139  and  _140
REMARK   61  A    between atoms: _142  and  _144
REMARK   62  A    between atoms: _144  and  _145
REMARK   63  A    between atoms: _147  and  _149
REMARK   64  A    between atoms: _149  and  _150
REMARK   65  A    between atoms: _149  and  _152
REMARK   66  A    between atoms: _152  and  _153
REMARK   67  A    between atoms: _156  and  _158
REMARK   68  A    between atoms: _158  and  _159
REMARK   69  A    between atoms: _158  and  _161
REMARK   70  A    between atoms: _161  and  _162
REMARK   71  A    between atoms: _165  and  _167
REMARK   72  A    between atoms: _167  and  _168
REMARK   73  A    between atoms: _167  and  _170
REMARK   74  A    between atoms: _170  and  _171
REMARK   75  A    between atoms: _175  and  _176
REMARK   76  A    between atoms: _181  and  _183
REMARK   77  A    between atoms: _183  and  _184
REMARK   78  A    between atoms: _183  and  _186
REMARK   79  A    between atoms: _189  and  _191
REMARK   80  A    between atoms: _191  and  _192
REMARK   81  A    between atoms: _191  and  _194
REMARK   82  A    between atoms: _194  and  _195
REMARK   83  A    between atoms: _200  and  _202
REMARK   84  A    between atoms: _202  and  _203
REMARK   85  A    between atoms: _202  and  _205
REMARK   86  A    between atoms: _205  and  _206
REMARK   87  A    between atoms: _209  and  _211
REMARK   88  A    between atoms: _211  and  _212
REMARK   89  A    between atoms: _211  and  _214
REMARK   90  A    between atoms: _214  and  _215
REMARK   91  A    between atoms: _218  and  _220
REMARK   92  A    between atoms: _220  and  _221
REMARK   93  A    between atoms: _223  and  _225
REMARK   94  A    between atoms: _225  and  _226
REMARK   95  A    between atoms: _225  and  _228
REMARK   96  A    between atoms: _228  and  _229
REMARK   97  A    between atoms: _229  and  _230
REMARK   98  A    between atoms: _230  and  _231
REMARK   99  A    between atoms: _240  and  _242
REMARK  100  A    between atoms: _242  and  _243
REMARK  101  A    between atoms: _242  and  _245
REMARK  102  A    between atoms: _245  and  _246
REMARK  103  A    between atoms: _248  and  _250
REMARK  104  A    between atoms: _250  and  _251
REMARK  105  A    between atoms: _250  and  _253
REMARK  106  A    between atoms: _253  and  _254
REMARK  107  A    between atoms: _254  and  _255
REMARK  108  A    between atoms: _255  and  _256
REMARK  109  A    between atoms: _265  and  _267
REMARK  110  A    between atoms: _267  and  _268
REMARK  111  A    between atoms: _267  and  _270
REMARK  112  A    between atoms: _270  and  _271
REMARK  113  A    between atoms: _274  and  _276
REMARK  114  A    between atoms: _276  and  _277
REMARK  115  A    between atoms: _276  and  _279
REMARK  116  A    between atoms: _279  and  _280
REMARK  117  A    between atoms: _283  and  _285
REMARK  118  A    between atoms: _285  and  _286
REMARK  119  A    between atoms: _285  and  _288
REMARK  120  A    between atoms: _288  and  _289
REMARK  121  A    between atoms: _292  and  _294
REMARK  122  A    between atoms: _294  and  _295
REMARK  123  A    between atoms: _294  and  _297
REMARK  124  A    between atoms: _297  and  _298
REMARK  125  A    between atoms: _301  and  _303
REMARK  126  A    between atoms: _303  and  _304
REMARK  127  A    between atoms: _306  and  _308
REMARK  128  A    between atoms: _308  and  _309
REMARK  129  A    between atoms: _312  and  _314
REMARK  130  A    between atoms: _314  and  _315
REMARK  131  A    between atoms: _314  and  _317
REMARK  132  A    between atoms: _317  and  _318
REMARK  133  A    between atoms: _321  and  _323
REMARK  134  A    between atoms: _323  and  _324
REMARK  135  A    between atoms: _323  and  _326
REMARK  136  A    between atoms: _326  and  _327
REMARK  137  A    between atoms: _330  and  _332
REMARK  138  A    between atoms: _332  and  _333
REMARK  139  A    between atoms: _332  and  _335
REMARK  140  A    between atoms: _335  and  _336
REMARK  141  A    between atoms: _339  and  _341
REMARK  142  A    between atoms: _341  and  _342
REMARK  143  A    between atoms: _341  and  _344
REMARK  144  A    between atoms: _347  and  _349
REMARK  145  A    between atoms: _349  and  _350
REMARK  146  A    between atoms: _349  and  _352
REMARK  147  A    between atoms: _352  and  _353
REMARK  148  A    between atoms: _353  and  _354
REMARK  149  A    between atoms: _356  and  _358
REMARK  150  A    between atoms: _358  and  _359
REMARK  151  A    between atoms: _358  and  _361
REMARK  152  A    between atoms: _361  and  _362
REMARK  153  A    between atoms: _365  and  _367
REMARK  154  A    between atoms: _367  and  _368
REMARK  155  A    between atoms: _370  and  _372
REMARK  156  A    between atoms: _372  and  _373
REMARK  157  A    between atoms: _375  and  _377
REMARK  158  A    between atoms: _377  and  _378
REMARK  159  A    between atoms: _377  and  _380
REMARK  160  A    between atoms: _380  and  _381
REMARK  161  A    between atoms: _384  and  _386
REMARK  162  A    between atoms: _386  and  _387
REMARK  163  A    between atoms: _389  and  _391
REMARK  164  A    between atoms: _391  and  _392
REMARK  165  A    between atoms: _394  and  _396
REMARK  166  A    between atoms: _396  and  _397
REMARK  167  A    between atoms: _396  and  _399
REMARK  168  A    between atoms: _399  and  _400
REMARK  169  A    between atoms: _403  and  _405
REMARK  170  A    between atoms: _405  and  _406
REMARK  171  A    between atoms: _405  and  _408
REMARK  172  A    between atoms: _411  and  _413
REMARK  173  A    between atoms: _413  and  _414
REMARK  174  A    between atoms: _413  and  _416
REMARK  175  A    between atoms: _416  and  _417
REMARK  176  A    between atoms: _421  and  _422
REMARK  177  A    between atoms: _427  and  _429
REMARK  178  A    between atoms: _429  and  _430
REMARK  179  A    between atoms: _429  and  _432
REMARK  180  A    between atoms: _432  and  _433
REMARK  181  A    between atoms: _437  and  _438
REMARK  182  A    between atoms: _443  and  _445
REMARK  183  A    between atoms: _445  and  _446
REMARK  184  A    between atoms: _445  and  _448
REMARK  185  A    between atoms: _451  and  _453
REMARK  186  A    between atoms: _453  and  _454
REMARK  187  A    between atoms: _453  and  _456
REMARK  188  A    between atoms: _456  and  _457
REMARK  189  A    between atoms: _462  and  _464
REMARK  190  A    between atoms: _464  and  _465
REMARK  191  A    between atoms: _464  and  _467
REMARK  192  A    between atoms: _467  and  _468
REMARK  193  A    between atoms: _471  and  _473
REMARK  194  A    between atoms: _473  and  _474
REMARK  195  A    between atoms: _473  and  _476
REMARK  196  A    between atoms: _476  and  _477
REMARK  197  A    between atoms: _480  and  _482
REMARK  198  A    between atoms: _482  and  _483
REMARK  199  A    between atoms: _485  and  _487
REMARK  200  A    between atoms: _487  and  _488
REMARK  201  A    between atoms: _487  and  _490
REMARK  202  A    between atoms: _490  and  _491
REMARK  203  A    between atoms: _491  and  _492
REMARK  204  A    between atoms: _492  and  _493
REMARK  205  A    between atoms: _502  and  _504
REMARK  206  A    between atoms: _504  and  _505
REMARK  207  A    between atoms: _504  and  _507
REMARK  208  A    between atoms: _507  and  _508
REMARK                            x       y       z     vdW  Elec       q    Type
REMARK                         _______ _______ _______ _____ _____    ______ ____
ROOT
ATOM      1  O   HOH     1      15.621 -15.997   4.490  0.00  0.00    +0.000 OA
ENDROOT
TORSDOF 0
REMARK  Name = ../refined-set-2016/3lzu/3lzu_pocket.pdb
REMARK  208 active torsions:
REMARK  status: ('A' for Active; 'I' for Inactive)
REMARK    1  A    between atoms: _1  and  _3
REMARK    2  A    between atoms: _3  and  _4
REMARK    3  A    between atoms: _3  and  _6
REMARK    4  A    between atoms: _6  and  _7
REMARK    5  A    between atoms: _7  and  _8
REMARK    6  A    between atoms: _8  and  _9
REMARK    7  A    between atoms: _18  and  _20
REMARK    8  A    between atoms: _20  and  _21
REMARK    9  A    between atoms: _20  and  _23
REMARK   10  A    between atoms: _23  and  _24
REMARK   11  A    between atoms: _27  and  _29
REMARK   12  A    between atoms: _29  and  _30
REMARK   13  A    between atoms: _29  and  _32
REMARK   14  A    between atoms: _32  and  _33
REMARK   15  A    between atoms: _36  and  _38
REMARK   16  A    between atoms: _38  and  _39
REMARK   17  A    between atoms: _38  and  _41
REMARK   18  A    between atoms: _41  and  _42
REMARK   19  A    between atoms: _45  and  _47
REMARK   20  A    between atoms: _47  and  _48
REMARK   21  A    between atoms: _47  and  _50
REMARK   22  A    between atoms: _50  and  _51
REMARK   23  A    between atoms: _54  and  _56
REMARK   24  A    between atoms: _56  and  _57
REMARK   25  A    between atoms: _59  and  _61
REMARK   26  A    between atoms: _61  and  _62
REMARK   27  A    between atoms: _65  and  _67
REMARK   28  A    between atoms: _67  and  _68
REMARK   29  A    between atoms: _67  and  _70
REMARK   30  A    between atoms: _70  and  _71
REMARK   31  A    between atoms: _74  and  _76
REMARK   32  A    between atoms: _76  and  _77
REMARK   33  A    between atoms: _76  and  _79
REMARK   34  A    between atoms: _79  and  _80
REMARK   35  A    between atoms: _83  and  _85
REMARK   36  A    between atoms: _85  and  _86
REMARK   37  A    between atoms: _85  and  _88
REMARK   38  A    between atoms: _88  and  _89
REMARK   39  A    between atoms: _92  and  _94
REMARK   40  A    between atoms: _94  and  _95
REMARK   41  A    between atoms: _94  and  _97
REMARK   42  A    between atoms: _100  and  _102
REMARK   43  A    between atoms: _102  and  _103
REMARK   44  A    between atoms: _102  and  _105
REMARK   45  A    between atoms: _105  and  _106
REMARK   46  A    between atoms: _106  and  _107
REMARK   47  A    between atoms: _109  and  _111
REMARK   48  A    between atoms: _111  and  _112
REMARK   49  A    between atoms: _111  and  _114
REMARK   50  A    between atoms: _114  and  _115
REMARK   51  A    between atoms: _118  and  _120
REMARK   52  A    between atoms: _120  and  _121
REMARK   53  A    between atoms: _123  and  _125
REMARK   54  A    between atoms: _125  and  _126
REMARK   55  A    between atoms: _128  and  _130
REMARK   56  A    between atoms: _130  and  _131
REMARK   57  A    between atoms: _130  and  _133
REMARK   58  A    between atoms: _133  and  _134
REMARK   59  A    between atoms: _137  and  _139
REMARK   60  A    between atoms: _139  and  _140
REMARK   61  A    between atoms: _142  and  _144
REMARK   62  A    between atoms: _144  and  _145
REMARK   63  A    between atoms: _147  and  _149
REMARK   64  A    between atoms: _149  and  _150
REMARK   65  A    between atoms: _149  and  _152
REMARK   66  A    between atoms: _152  and  _153
REMARK   67  A    between atoms: _156  and  _158
REMARK   68  A    between atoms: _158  and  _159
REMARK   69  A    between atoms: _158  and  _161
REMARK   70  A    between atoms: _161  and  _162
REMARK   71  A    between atoms: _165  and  _167
REMARK   72  A    between atoms: _167  and  _168
REMARK   73  A    between atoms: _167  and  _170
REMARK   74  A    between atoms: _170  and  _171
REMARK   75  A    between atoms: _175  and  _176
REMARK   76  A    between atoms: _181  and  _183
REMARK   77  A    between atoms: _183  and  _184
REMARK   78  A    between atoms: _183  and  _186
REMARK   79  A    between atoms: _189  and  _191
REMARK   80  A    between atoms: _191  and  _192
REMARK   81  A    between atoms: _191  and  _194
REMARK   82  A    between atoms: _194  and  _195
REMARK   83  A    between atoms: _200  and  _202
REMARK   84  A    between atoms: _202  and  _203
REMARK   85  A    between atoms: _202  and  _205
REMARK   86  A    between atoms: _205  and  _206
REMARK   87  A    between atoms: _209  and  _211
REMARK   88  A    between atoms: _211  and  _212
REMARK   89  A    between atoms: _211  and  _214
REMARK   90  A    between atoms: _214  and  _215
REMARK   91  A    between atoms: _218  and  _220
REMARK   92  A    between atoms: _220  and  _221
REMARK   93  A    between atoms: _223  and  _225
REMARK   94  A    between atoms: _225  and  _226
REMARK   95  A    between atoms: _225  and  _228
REMARK   96  A    between atoms: _228  and  _229
REMARK   97  A    between atoms: _229  and  _230
REMARK   98  A    between atoms: _230  and  _231
REMARK   99  A    between atoms: _240  and  _242
REMARK  100  A    between atoms: _242  and  _243
REMARK  101  A    between atoms: _242  and  _245
REMARK  102  A    between atoms: _245  and  _246
REMARK  103  A    between atoms: _248  and  _250
REMARK  104  A    between atoms: _250  and  _251
REMARK  105  A    between atoms: _250  and  _253
REMARK  106  A    between atoms: _253  and  _254
REMARK  107  A    between atoms: _254  and  _255
REMARK  108  A    between atoms: _255  and  _256
REMARK  109  A    between atoms: _265  and  _267
REMARK  110  A    between atoms: _267  and  _268
REMARK  111  A    between atoms: _267  and  _270
REMARK  112  A    between atoms: _270  and  _271
REMARK  113  A    between atoms: _274  and  _276
REMARK  114  A    between atoms: _276  and  _277
REMARK  115  A    between atoms: _276  and  _279
REMARK  116  A    between atoms: _279  and  _280
REMARK  117  A    between atoms: _283  and  _285
REMARK  118  A    between atoms: _285  and  _286
REMARK  119  A    between atoms: _285  and  _288
REMARK  120  A    between atoms: _288  and  _289
REMARK  121  A    between atoms: _292  and  _294
REMARK  122  A    between atoms: _294  and  _295
REMARK  123  A    between atoms: _294  and  _297
REMARK  124  A    between atoms: _297  and  _298
REMARK  125  A    between atoms: _301  and  _303
REMARK  126  A    between atoms: _303  and  _304
REMARK  127  A    between atoms: _306  and  _308
REMARK  128  A    between atoms: _308  and  _309
REMARK  129  A    between atoms: _312  and  _314
REMARK  130  A    between atoms: _314  and  _315
REMARK  131  A    between atoms: _314  and  _317
REMARK  132  A    between atoms: _317  and  _318
REMARK  133  A    between atoms: _321  and  _323
REMARK  134  A    between atoms: _323  and  _324
REMARK  135  A    between atoms: _323  and  _326
REMARK  136  A    between atoms: _326  and  _327
REMARK  137  A    between atoms: _330  and  _332
REMARK  138  A    between atoms: _332  and  _333
REMARK  139  A    between atoms: _332  and  _335
REMARK  140  A    between atoms: _335  and  _336
REMARK  141  A    between atoms: _339  and  _341
REMARK  142  A    between atoms: _341  and  _342
REMARK  143  A    between atoms: _341  and  _344
REMARK  144  A    between atoms: _347  and  _349
REMARK  145  A    between atoms: _349  and  _350
REMARK  146  A    between atoms: _349  and  _352
REMARK  147  A    between atoms: _352  and  _353
REMARK  148  A    between atoms: _353  and  _354
REMARK  149  A    between atoms: _356  and  _358
REMARK  150  A    between atoms: _358  and  _359
REMARK  151  A    between atoms: _358  and  _361
REMARK  152  A    between atoms: _361  and  _362
REMARK  153  A    between atoms: _365  and  _367
REMARK  154  A    between atoms: _367  and  _368
REMARK  155  A    between atoms: _370  and  _372
REMARK  156  A    between atoms: _372  and  _373
REMARK  157  A    between atoms: _375  and  _377
REMARK  158  A    between atoms: _377  and  _378
REMARK  159  A    between atoms: _377  and  _380
REMARK  160  A    between atoms: _380  and  _381
REMARK  161  A    between atoms: _384  and  _386
REMARK  162  A    between atoms: _386  and  _387
REMARK  163  A    between atoms: _389  and  _391
REMARK  164  A    between atoms: _391  and  _392
REMARK  165  A    between atoms: _394  and  _396
REMARK  166  A    between atoms: _396  and  _397
REMARK  167  A    between atoms: _396  and  _399
REMARK  168  A    between atoms: _399  and  _400
REMARK  169  A    between atoms: _403  and  _405
REMARK  170  A    between atoms: _405  and  _406
REMARK  171  A    between atoms: _405  and  _408
REMARK  172  A    between atoms: _411  and  _413
REMARK  173  A    between atoms: _413  and  _414
REMARK  174  A    between atoms: _413  and  _416
REMARK  175  A    between atoms: _416  and  _417
REMARK  176  A    between atoms: _421  and  _422
REMARK  177  A    between atoms: _427  and  _429
REMARK  178  A    between atoms: _429  and  _430
REMARK  179  A    between atoms: _429  and  _432
REMARK  180  A    between atoms: _432  and  _433
REMARK  181  A    between atoms: _437  and  _438
REMARK  182  A    between atoms: _443  and  _445
REMARK  183  A    between atoms: _445  and  _446
REMARK  184  A    between atoms: _445  and  _448
REMARK  185  A    between atoms: _451  and  _453
REMARK  186  A    between atoms: _453  and  _454
REMARK  187  A    between atoms: _453  and  _456
REMARK  188  A    between atoms: _456  and  _457
REMARK  189  A    between atoms: _462  and  _464
REMARK  190  A    between atoms: _464  and  _465
REMARK  191  A    between atoms: _464  and  _467
REMARK  192  A    between atoms: _467  and  _468
REMARK  193  A    between atoms: _471  and  _473
REMARK  194  A    between atoms: _473  and  _474
REMARK  195  A    between atoms: _473  and  _476
REMARK  196  A    between atoms: _476  and  _477
REMARK  197  A    between atoms: _480  and  _482
REMARK  198  A    between atoms: _482  and  _483
REMARK  199  A    between atoms: _485  and  _487
REMARK  200  A    between atoms: _487  and  _488
REMARK  201  A    between atoms: _487  and  _490
REMARK  202  A    between atoms: _490  and  _491
REMARK  203  A    between atoms: _491  and  _492
REMARK  204  A    between atoms: _492  and  _493
REMARK  205  A    between atoms: _502  and  _504
REMARK  206  A    between atoms: _504  and  _505
REMARK  207  A    between atoms: _504  and  _507
REMARK  208  A    between atoms: _507  and  _508
REMARK                            x       y       z     vdW  Elec       q    Type
REMARK                         _______ _______ _______ _____ _____    ______ ____
ROOT
ATOM      1  O   HOH     1      10.216  -6.544   2.622  0.00  0.00    +0.000 OA
ENDROOT
TORSDOF 0
REMARK  Name = ../refined-set-2016/3lzu/3lzu_pocket.pdb
REMARK  208 active torsions:
REMARK  status: ('A' for Active; 'I' for Inactive)
REMARK    1  A    between atoms: _1  and  _3
REMARK    2  A    between atoms: _3  and  _4
REMARK    3  A    between atoms: _3  and  _6
REMARK    4  A    between atoms: _6  and  _7
REMARK    5  A    between atoms: _7  and  _8
REMARK    6  A    between atoms: _8  and  _9
REMARK    7  A    between atoms: _18  and  _20
REMARK    8  A    between atoms: _20  and  _21
REMARK    9  A    between atoms: _20  and  _23
REMARK   10  A    between atoms: _23  and  _24
REMARK   11  A    between atoms: _27  and  _29
REMARK   12  A    between atoms: _29  and  _30
REMARK   13  A    between atoms: _29  and  _32
REMARK   14  A    between atoms: _32  and  _33
REMARK   15  A    between atoms: _36  and  _38
REMARK   16  A    between atoms: _38  and  _39
REMARK   17  A    between atoms: _38  and  _41
REMARK   18  A    between atoms: _41  and  _42
REMARK   19  A    between atoms: _45  and  _47
REMARK   20  A    between atoms: _47  and  _48
REMARK   21  A    between atoms: _47  and  _50
REMARK   22  A    between atoms: _50  and  _51
REMARK   23  A    between atoms: _54  and  _56
REMARK   24  A    between atoms: _56  and  _57
REMARK   25  A    between atoms: _59  and  _61
REMARK   26  A    between atoms: _61  and  _62
REMARK   27  A    between atoms: _65  and  _67
REMARK   28  A    between atoms: _67  and  _68
REMARK   29  A    between atoms: _67  and  _70
REMARK   30  A    between atoms: _70  and  _71
REMARK   31  A    between atoms: _74  and  _76
REMARK   32  A    between atoms: _76  and  _77
REMARK   33  A    between atoms: _76  and  _79
REMARK   34  A    between atoms: _79  and  _80
REMARK   35  A    between atoms: _83  and  _85
REMARK   36  A    between atoms: _85  and  _86
REMARK   37  A    between atoms: _85  and  _88
REMARK   38  A    between atoms: _88  and  _89
REMARK   39  A    between atoms: _92  and  _94
REMARK   40  A    between atoms: _94  and  _95
REMARK   41  A    between atoms: _94  and  _97
REMARK   42  A    between atoms: _100  and  _102
REMARK   43  A    between atoms: _102  and  _103
REMARK   44  A    between atoms: _102  and  _105
REMARK   45  A    between atoms: _105  and  _106
REMARK   46  A    between atoms: _106  and  _107
REMARK   47  A    between atoms: _109  and  _111
REMARK   48  A    between atoms: _111  and  _112
REMARK   49  A    between atoms: _111  and  _114
REMARK   50  A    between atoms: _114  and  _115
REMARK   51  A    between atoms: _118  and  _120
REMARK   52  A    between atoms: _120  and  _121
REMARK   53  A    between atoms: _123  and  _125
REMARK   54  A    between atoms: _125  and  _126
REMARK   55  A    between atoms: _128  and  _130
REMARK   56  A    between atoms: _130  and  _131
REMARK   57  A    between atoms: _130  and  _133
REMARK   58  A    between atoms: _133  and  _134
REMARK   59  A    between atoms: _137  and  _139
REMARK   60  A    between atoms: _139  and  _140
REMARK   61  A    between atoms: _142  and  _144
REMARK   62  A    between atoms: _144  and  _145
REMARK   63  A    between atoms: _147  and  _149
REMARK   64  A    between atoms: _149  and  _150
REMARK   65  A    between atoms: _149  and  _152
REMARK   66  A    between atoms: _152  and  _153
REMARK   67  A    between atoms: _156  and  _158
REMARK   68  A    between atoms: _158  and  _159
REMARK   69  A    between atoms: _158  and  _161
REMARK   70  A    between atoms: _161  and  _162
REMARK   71  A    between atoms: _165  and  _167
REMARK   72  A    between atoms: _167  and  _168
REMARK   73  A    between atoms: _167  and  _170
REMARK   74  A    between atoms: _170  and  _171
REMARK   75  A    between atoms: _175  and  _176
REMARK   76  A    between atoms: _181  and  _183
REMARK   77  A    between atoms: _183  and  _184
REMARK   78  A    between atoms: _183  and  _186
REMARK   79  A    between atoms: _189  and  _191
REMARK   80  A    between atoms: _191  and  _192
REMARK   81  A    between atoms: _191  and  _194
REMARK   82  A    between atoms: _194  and  _195
REMARK   83  A    between atoms: _200  and  _202
REMARK   84  A    between atoms: _202  and  _203
REMARK   85  A    between atoms: _202  and  _205
REMARK   86  A    between atoms: _205  and  _206
REMARK   87  A    between atoms: _209  and  _211
REMARK   88  A    between atoms: _211  and  _212
REMARK   89  A    between atoms: _211  and  _214
REMARK   90  A    between atoms: _214  and  _215
REMARK   91  A    between atoms: _218  and  _220
REMARK   92  A    between atoms: _220  and  _221
REMARK   93  A    between atoms: _223  and  _225
REMARK   94  A    between atoms: _225  and  _226
REMARK   95  A    between atoms: _225  and  _228
REMARK   96  A    between atoms: _228  and  _229
REMARK   97  A    between atoms: _229  and  _230
REMARK   98  A    between atoms: _230  and  _231
REMARK   99  A    between atoms: _240  and  _242
REMARK  100  A    between atoms: _242  and  _243
REMARK  101  A    between atoms: _242  and  _245
REMARK  102  A    between atoms: _245  and  _246
REMARK  103  A    between atoms: _248  and  _250
REMARK  104  A    between atoms: _250  and  _251
REMARK  105  A    between atoms: _250  and  _253
REMARK  106  A    between atoms: _253  and  _254
REMARK  107  A    between atoms: _254  and  _255
REMARK  108  A    between atoms: _255  and  _256
REMARK  109  A    between atoms: _265  and  _267
REMARK  110  A    between atoms: _267  and  _268
REMARK  111  A    between atoms: _267  and  _270
REMARK  112  A    between atoms: _270  and  _271
REMARK  113  A    between atoms: _274  and  _276
REMARK  114  A    between atoms: _276  and  _277
REMARK  115  A    between atoms: _276  and  _279
REMARK  116  A    between atoms: _279  and  _280
REMARK  117  A    between atoms: _283  and  _285
REMARK  118  A    between atoms: _285  and  _286
REMARK  119  A    between atoms: _285  and  _288
REMARK  120  A    between atoms: _288  and  _289
REMARK  121  A    between atoms: _292  and  _294
REMARK  122  A    between atoms: _294  and  _295
REMARK  123  A    between atoms: _294  and  _297
REMARK  124  A    between atoms: _297  and  _298
REMARK  125  A    between atoms: _301  and  _303
REMARK  126  A    between atoms: _303  and  _304
REMARK  127  A    between atoms: _306  and  _308
REMARK  128  A    between atoms: _308  and  _309
REMARK  129  A    between atoms: _312  and  _314
REMARK  130  A    between atoms: _314  and  _315
REMARK  131  A    between atoms: _314  and  _317
REMARK  132  A    between atoms: _317  and  _318
REMARK  133  A    between atoms: _321  and  _323
REMARK  134  A    between atoms: _323  and  _324
REMARK  135  A    between atoms: _323  and  _326
REMARK  136  A    between atoms: _326  and  _327
REMARK  137  A    between atoms: _330  and  _332
REMARK  138  A    between atoms: _332  and  _333
REMARK  139  A    between atoms: _332  and  _335
REMARK  140  A    between atoms: _335  and  _336
REMARK  141  A    between atoms: _339  and  _341
REMARK  142  A    between atoms: _341  and  _342
REMARK  143  A    between atoms: _341  and  _344
REMARK  144  A    between atoms: _347  and  _349
REMARK  145  A    between atoms: _349  and  _350
REMARK  146  A    between atoms: _349  and  _352
REMARK  147  A    between atoms: _352  and  _353
REMARK  148  A    between atoms: _353  and  _354
REMARK  149  A    between atoms: _356  and  _358
REMARK  150  A    between atoms: _358  and  _359
REMARK  151  A    between atoms: _358  and  _361
REMARK  152  A    between atoms: _361  and  _362
REMARK  153  A    between atoms: _365  and  _367
REMARK  154  A    between atoms: _367  and  _368
REMARK  155  A    between atoms: _370  and  _372
REMARK  156  A    between atoms: _372  and  _373
REMARK  157  A    between atoms: _375  and  _377
REMARK  158  A    between atoms: _377  and  _378
REMARK  159  A    between atoms: _377  and  _380
REMARK  160  A    between atoms: _380  and  _381
REMARK  161  A    between atoms: _384  and  _386
REMARK  162  A    between atoms: _386  and  _387
REMARK  163  A    between atoms: _389  and  _391
REMARK  164  A    between atoms: _391  and  _392
REMARK  165  A    between atoms: _394  and  _396
REMARK  166  A    between atoms: _396  and  _397
REMARK  167  A    between atoms: _396  and  _399
REMARK  168  A    between atoms: _399  and  _400
REMARK  169  A    between atoms: _403  and  _405
REMARK  170  A    between atoms: _405  and  _406
REMARK  171  A    between atoms: _405  and  _408
REMARK  172  A    between atoms: _411  and  _413
REMARK  173  A    between atoms: _413  and  _414
REMARK  174  A    between atoms: _413  and  _416
REMARK  175  A    between atoms: _416  and  _417
REMARK  176  A    between atoms: _421  and  _422
REMARK  177  A    between atoms: _427  and  _429
REMARK  178  A    between atoms: _429  and  _430
REMARK  179  A    between atoms: _429  and  _432
REMARK  180  A    between atoms: _432  and  _433
REMARK  181  A    between atoms: _437  and  _438
REMARK  182  A    between atoms: _443  and  _445
REMARK  183  A    between atoms: _445  and  _446
REMARK  184  A    between atoms: _445  and  _448
REMARK  185  A    between atoms: _451  and  _453
REMARK  186  A    between atoms: _453  and  _454
REMARK  187  A    between atoms: _453  and  _456
REMARK  188  A    between atoms: _456  and  _457
REMARK  189  A    between atoms: _462  and  _464
REMARK  190  A    between atoms: _464  and  _465
REMARK  191  A    between atoms: _464  and  _467
REMARK  192  A    between atoms: _467  and  _468
REMARK  193  A    between atoms: _471  and  _473
REMARK  194  A    between atoms: _473  and  _474
REMARK  195  A    between atoms: _473  and  _476
REMARK  196  A    between atoms: _476  and  _477
REMARK  197  A    between atoms: _480  and  _482
REMARK  198  A    between atoms: _482  and  _483
REMARK  199  A    between atoms: _485  and  _487
REMARK  200  A    between atoms: _487  and  _488
REMARK  201  A    between atoms: _487  and  _490
REMARK  202  A    between atoms: _490  and  _491
REMARK  203  A    between atoms: _491  and  _492
REMARK  204  A    between atoms: _492  and  _493
REMARK  205  A    between atoms: _502  and  _504
REMARK  206  A    between atoms: _504  and  _505
REMARK  207  A    between atoms: _504  and  _507
REMARK  208  A    between atoms: _507  and  _508
REMARK                            x       y       z     vdW  Elec       q    Type
REMARK                         _______ _______ _______ _____ _____    ______ ____
ROOT
ATOM      1  O   HOH     1      12.342  -7.964   3.835  0.00  0.00    +0.000 OA
ENDROOT
TORSDOF 0
REMARK  Name = ../refined-set-2016/3lzu/3lzu_pocket.pdb
REMARK  208 active torsions:
REMARK  status: ('A' for Active; 'I' for Inactive)
REMARK    1  A    between atoms: _1  and  _3
REMARK    2  A    between atoms: _3  and  _4
REMARK    3  A    between atoms: _3  and  _6
REMARK    4  A    between atoms: _6  and  _7
REMARK    5  A    between atoms: _7  and  _8
REMARK    6  A    between atoms: _8  and  _9
REMARK    7  A    between atoms: _18  and  _20
REMARK    8  A    between atoms: _20  and  _21
REMARK    9  A    between atoms: _20  and  _23
REMARK   10  A    between atoms: _23  and  _24
REMARK   11  A    between atoms: _27  and  _29
REMARK   12  A    between atoms: _29  and  _30
REMARK   13  A    between atoms: _29  and  _32
REMARK   14  A    between atoms: _32  and  _33
REMARK   15  A    between atoms: _36  and  _38
REMARK   16  A    between atoms: _38  and  _39
REMARK   17  A    between atoms: _38  and  _41
REMARK   18  A    between atoms: _41  and  _42
REMARK   19  A    between atoms: _45  and  _47
REMARK   20  A    between atoms: _47  and  _48
REMARK   21  A    between atoms: _47  and  _50
REMARK   22  A    between atoms: _50  and  _51
REMARK   23  A    between atoms: _54  and  _56
REMARK   24  A    between atoms: _56  and  _57
REMARK   25  A    between atoms: _59  and  _61
REMARK   26  A    between atoms: _61  and  _62
REMARK   27  A    between atoms: _65  and  _67
REMARK   28  A    between atoms: _67  and  _68
REMARK   29  A    between atoms: _67  and  _70
REMARK   30  A    between atoms: _70  and  _71
REMARK   31  A    between atoms: _74  and  _76
REMARK   32  A    between atoms: _76  and  _77
REMARK   33  A    between atoms: _76  and  _79
REMARK   34  A    between atoms: _79  and  _80
REMARK   35  A    between atoms: _83  and  _85
REMARK   36  A    between atoms: _85  and  _86
REMARK   37  A    between atoms: _85  and  _88
REMARK   38  A    between atoms: _88  and  _89
REMARK   39  A    between atoms: _92  and  _94
REMARK   40  A    between atoms: _94  and  _95
REMARK   41  A    between atoms: _94  and  _97
REMARK   42  A    between atoms: _100  and  _102
REMARK   43  A    between atoms: _102  and  _103
REMARK   44  A    between atoms: _102  and  _105
REMARK   45  A    between atoms: _105  and  _106
REMARK   46  A    between atoms: _106  and  _107
REMARK   47  A    between atoms: _109  and  _111
REMARK   48  A    between atoms: _111  and  _112
REMARK   49  A    between atoms: _111  and  _114
REMARK   50  A    between atoms: _114  and  _115
REMARK   51  A    between atoms: _118  and  _120
REMARK   52  A    between atoms: _120  and  _121
REMARK   53  A    between atoms: _123  and  _125
REMARK   54  A    between atoms: _125  and  _126
REMARK   55  A    between atoms: _128  and  _130
REMARK   56  A    between atoms: _130  and  _131
REMARK   57  A    between atoms: _130  and  _133
REMARK   58  A    between atoms: _133  and  _134
REMARK   59  A    between atoms: _137  and  _139
REMARK   60  A    between atoms: _139  and  _140
REMARK   61  A    between atoms: _142  and  _144
REMARK   62  A    between atoms: _144  and  _145
REMARK   63  A    between atoms: _147  and  _149
REMARK   64  A    between atoms: _149  and  _150
REMARK   65  A    between atoms: _149  and  _152
REMARK   66  A    between atoms: _152  and  _153
REMARK   67  A    between atoms: _156  and  _158
REMARK   68  A    between atoms: _158  and  _159
REMARK   69  A    between atoms: _158  and  _161
REMARK   70  A    between atoms: _161  and  _162
REMARK   71  A    between atoms: _165  and  _167
REMARK   72  A    between atoms: _167  and  _168
REMARK   73  A    between atoms: _167  and  _170
REMARK   74  A    between atoms: _170  and  _171
REMARK   75  A    between atoms: _175  and  _176
REMARK   76  A    between atoms: _181  and  _183
REMARK   77  A    between atoms: _183  and  _184
REMARK   78  A    between atoms: _183  and  _186
REMARK   79  A    between atoms: _189  and  _191
REMARK   80  A    between atoms: _191  and  _192
REMARK   81  A    between atoms: _191  and  _194
REMARK   82  A    between atoms: _194  and  _195
REMARK   83  A    between atoms: _200  and  _202
REMARK   84  A    between atoms: _202  and  _203
REMARK   85  A    between atoms: _202  and  _205
REMARK   86  A    between atoms: _205  and  _206
REMARK   87  A    between atoms: _209  and  _211
REMARK   88  A    between atoms: _211  and  _212
REMARK   89  A    between atoms: _211  and  _214
REMARK   90  A    between atoms: _214  and  _215
REMARK   91  A    between atoms: _218  and  _220
REMARK   92  A    between atoms: _220  and  _221
REMARK   93  A    between atoms: _223  and  _225
REMARK   94  A    between atoms: _225  and  _226
REMARK   95  A    between atoms: _225  and  _228
REMARK   96  A    between atoms: _228  and  _229
REMARK   97  A    between atoms: _229  and  _230
REMARK   98  A    between atoms: _230  and  _231
REMARK   99  A    between atoms: _240  and  _242
REMARK  100  A    between atoms: _242  and  _243
REMARK  101  A    between atoms: _242  and  _245
REMARK  102  A    between atoms: _245  and  _246
REMARK  103  A    between atoms: _248  and  _250
REMARK  104  A    between atoms: _250  and  _251
REMARK  105  A    between atoms: _250  and  _253
REMARK  106  A    between atoms: _253  and  _254
REMARK  107  A    between atoms: _254  and  _255
REMARK  108  A    between atoms: _255  and  _256
REMARK  109  A    between atoms: _265  and  _267
REMARK  110  A    between atoms: _267  and  _268
REMARK  111  A    between atoms: _267  and  _270
REMARK  112  A    between atoms: _270  and  _271
REMARK  113  A    between atoms: _274  and  _276
REMARK  114  A    between atoms: _276  and  _277
REMARK  115  A    between atoms: _276  and  _279
REMARK  116  A    between atoms: _279  and  _280
REMARK  117  A    between atoms: _283  and  _285
REMARK  118  A    between atoms: _285  and  _286
REMARK  119  A    between atoms: _285  and  _288
REMARK  120  A    between atoms: _288  and  _289
REMARK  121  A    between atoms: _292  and  _294
REMARK  122  A    between atoms: _294  and  _295
REMARK  123  A    between atoms: _294  and  _297
REMARK  124  A    between atoms: _297  and  _298
REMARK  125  A    between atoms: _301  and  _303
REMARK  126  A    between atoms: _303  and  _304
REMARK  127  A    between atoms: _306  and  _308
REMARK  128  A    between atoms: _308  and  _309
REMARK  129  A    between atoms: _312  and  _314
REMARK  130  A    between atoms: _314  and  _315
REMARK  131  A    between atoms: _314  and  _317
REMARK  132  A    between atoms: _317  and  _318
REMARK  133  A    between atoms: _321  and  _323
REMARK  134  A    between atoms: _323  and  _324
REMARK  135  A    between atoms: _323  and  _326
REMARK  136  A    between atoms: _326  and  _327
REMARK  137  A    between atoms: _330  and  _332
REMARK  138  A    between atoms: _332  and  _333
REMARK  139  A    between atoms: _332  and  _335
REMARK  140  A    between atoms: _335  and  _336
REMARK  141  A    between atoms: _339  and  _341
REMARK  142  A    between atoms: _341  and  _342
REMARK  143  A    between atoms: _341  and  _344
REMARK  144  A    between atoms: _347  and  _349
REMARK  145  A    between atoms: _349  and  _350
REMARK  146  A    between atoms: _349  and  _352
REMARK  147  A    between atoms: _352  and  _353
REMARK  148  A    between atoms: _353  and  _354
REMARK  149  A    between atoms: _356  and  _358
REMARK  150  A    between atoms: _358  and  _359
REMARK  151  A    between atoms: _358  and  _361
REMARK  152  A    between atoms: _361  and  _362
REMARK  153  A    between atoms: _365  and  _367
REMARK  154  A    between atoms: _367  and  _368
REMARK  155  A    between atoms: _370  and  _372
REMARK  156  A    between atoms: _372  and  _373
REMARK  157  A    between atoms: _375  and  _377
REMARK  158  A    between atoms: _377  and  _378
REMARK  159  A    between atoms: _377  and  _380
REMARK  160  A    between atoms: _380  and  _381
REMARK  161  A    between atoms: _384  and  _386
REMARK  162  A    between atoms: _386  and  _387
REMARK  163  A    between atoms: _389  and  _391
REMARK  164  A    between atoms: _391  and  _392
REMARK  165  A    between atoms: _394  and  _396
REMARK  166  A    between atoms: _396  and  _397
REMARK  167  A    between atoms: _396  and  _399
REMARK  168  A    between atoms: _399  and  _400
REMARK  169  A    between atoms: _403  and  _405
REMARK  170  A    between atoms: _405  and  _406
REMARK  171  A    between atoms: _405  and  _408
REMARK  172  A    between atoms: _411  and  _413
REMARK  173  A    between atoms: _413  and  _414
REMARK  174  A    between atoms: _413  and  _416
REMARK  175  A    between atoms: _416  and  _417
REMARK  176  A    between atoms: _421  and  _422
REMARK  177  A    between atoms: _427  and  _429
REMARK  178  A    between atoms: _429  and  _430
REMARK  179  A    between atoms: _429  and  _432
REMARK  180  A    between atoms: _432  and  _433
REMARK  181  A    between atoms: _437  and  _438
REMARK  182  A    between atoms: _443  and  _445
REMARK  183  A    between atoms: _445  and  _446
REMARK  184  A    between atoms: _445  and  _448
REMARK  185  A    between atoms: _451  and  _453
REMARK  186  A    between atoms: _453  and  _454
REMARK  187  A    between atoms: _453  and  _456
REMARK  188  A    between atoms: _456  and  _457
REMARK  189  A    between atoms: _462  and  _464
REMARK  190  A    between atoms: _464  and  _465
REMARK  191  A    between atoms: _464  and  _467
REMARK  192  A    between atoms: _467  and  _468
REMARK  193  A    between atoms: _471  and  _473
REMARK  194  A    between atoms: _473  and  _474
REMARK  195  A    between atoms: _473  and  _476
REMARK  196  A    between atoms: _476  and  _477
REMARK  197  A    between atoms: _480  and  _482
REMARK  198  A    between atoms: _482  and  _483
REMARK  199  A    between atoms: _485  and  _487
REMARK  200  A    between atoms: _487  and  _488
REMARK  201  A    between atoms: _487  and  _490
REMARK  202  A    between atoms: _490  and  _491
REMARK  203  A    between atoms: _491  and  _492
REMARK  204  A    between atoms: _492  and  _493
REMARK  205  A    between atoms: _502  and  _504
REMARK  206  A    between atoms: _504  and  _505
REMARK  207  A    between atoms: _504  and  _507
REMARK  208  A    between atoms: _507  and  _508
REMARK                            x       y       z     vdW  Elec       q    Type
REMARK                         _______ _______ _______ _____ _____    ______ ____
ROOT
ATOM      1  O   HOH     1      15.663 -19.368  11.277  0.00  0.00    +0.000 OA
ENDROOT
TORSDOF 0
REMARK  Name = ../refined-set-2016/3lzu/3lzu_pocket.pdb
REMARK  208 active torsions:
REMARK  status: ('A' for Active; 'I' for Inactive)
REMARK    1  A    between atoms: _1  and  _3
REMARK    2  A    between atoms: _3  and  _4
REMARK    3  A    between atoms: _3  and  _6
REMARK    4  A    between atoms: _6  and  _7
REMARK    5  A    between atoms: _7  and  _8
REMARK    6  A    between atoms: _8  and  _9
REMARK    7  A    between atoms: _18  and  _20
REMARK    8  A    between atoms: _20  and  _21
REMARK    9  A    between atoms: _20  and  _23
REMARK   10  A    between atoms: _23  and  _24
REMARK   11  A    between atoms: _27  and  _29
REMARK   12  A    between atoms: _29  and  _30
REMARK   13  A    between atoms: _29  and  _32
REMARK   14  A    between atoms: _32  and  _33
REMARK   15  A    between atoms: _36  and  _38
REMARK   16  A    between atoms: _38  and  _39
REMARK   17  A    between atoms: _38  and  _41
REMARK   18  A    between atoms: _41  and  _42
REMARK   19  A    between atoms: _45  and  _47
REMARK   20  A    between atoms: _47  and  _48
REMARK   21  A    between atoms: _47  and  _50
REMARK   22  A    between atoms: _50  and  _51
REMARK   23  A    between atoms: _54  and  _56
REMARK   24  A    between atoms: _56  and  _57
REMARK   25  A    between atoms: _59  and  _61
REMARK   26  A    between atoms: _61  and  _62
REMARK   27  A    between atoms: _65  and  _67
REMARK   28  A    between atoms: _67  and  _68
REMARK   29  A    between atoms: _67  and  _70
REMARK   30  A    between atoms: _70  and  _71
REMARK   31  A    between atoms: _74  and  _76
REMARK   32  A    between atoms: _76  and  _77
REMARK   33  A    between atoms: _76  and  _79
REMARK   34  A    between atoms: _79  and  _80
REMARK   35  A    between atoms: _83  and  _85
REMARK   36  A    between atoms: _85  and  _86
REMARK   37  A    between atoms: _85  and  _88
REMARK   38  A    between atoms: _88  and  _89
REMARK   39  A    between atoms: _92  and  _94
REMARK   40  A    between atoms: _94  and  _95
REMARK   41  A    between atoms: _94  and  _97
REMARK   42  A    between atoms: _100  and  _102
REMARK   43  A    between atoms: _102  and  _103
REMARK   44  A    between atoms: _102  and  _105
REMARK   45  A    between atoms: _105  and  _106
REMARK   46  A    between atoms: _106  and  _107
REMARK   47  A    between atoms: _109  and  _111
REMARK   48  A    between atoms: _111  and  _112
REMARK   49  A    between atoms: _111  and  _114
REMARK   50  A    between atoms: _114  and  _115
REMARK   51  A    between atoms: _118  and  _120
REMARK   52  A    between atoms: _120  and  _121
REMARK   53  A    between atoms: _123  and  _125
REMARK   54  A    between atoms: _125  and  _126
REMARK   55  A    between atoms: _128  and  _130
REMARK   56  A    between atoms: _130  and  _131
REMARK   57  A    between atoms: _130  and  _133
REMARK   58  A    between atoms: _133  and  _134
REMARK   59  A    between atoms: _137  and  _139
REMARK   60  A    between atoms: _139  and  _140
REMARK   61  A    between atoms: _142  and  _144
REMARK   62  A    between atoms: _144  and  _145
REMARK   63  A    between atoms: _147  and  _149
REMARK   64  A    between atoms: _149  and  _150
REMARK   65  A    between atoms: _149  and  _152
REMARK   66  A    between atoms: _152  and  _153
REMARK   67  A    between atoms: _156  and  _158
REMARK   68  A    between atoms: _158  and  _159
REMARK   69  A    between atoms: _158  and  _161
REMARK   70  A    between atoms: _161  and  _162
REMARK   71  A    between atoms: _165  and  _167
REMARK   72  A    between atoms: _167  and  _168
REMARK   73  A    between atoms: _167  and  _170
REMARK   74  A    between atoms: _170  and  _171
REMARK   75  A    between atoms: _175  and  _176
REMARK   76  A    between atoms: _181  and  _183
REMARK   77  A    between atoms: _183  and  _184
REMARK   78  A    between atoms: _183  and  _186
REMARK   79  A    between atoms: _189  and  _191
REMARK   80  A    between atoms: _191  and  _192
REMARK   81  A    between atoms: _191  and  _194
REMARK   82  A    between atoms: _194  and  _195
REMARK   83  A    between atoms: _200  and  _202
REMARK   84  A    between atoms: _202  and  _203
REMARK   85  A    between atoms: _202  and  _205
REMARK   86  A    between atoms: _205  and  _206
REMARK   87  A    between atoms: _209  and  _211
REMARK   88  A    between atoms: _211  and  _212
REMARK   89  A    between atoms: _211  and  _214
REMARK   90  A    between atoms: _214  and  _215
REMARK   91  A    between atoms: _218  and  _220
REMARK   92  A    between atoms: _220  and  _221
REMARK   93  A    between atoms: _223  and  _225
REMARK   94  A    between atoms: _225  and  _226
REMARK   95  A    between atoms: _225  and  _228
REMARK   96  A    between atoms: _228  and  _229
REMARK   97  A    between atoms: _229  and  _230
REMARK   98  A    between atoms: _230  and  _231
REMARK   99  A    between atoms: _240  and  _242
REMARK  100  A    between atoms: _242  and  _243
REMARK  101  A    between atoms: _242  and  _245
REMARK  102  A    between atoms: _245  and  _246
REMARK  103  A    between atoms: _248  and  _250
REMARK  104  A    between atoms: _250  and  _251
REMARK  105  A    between atoms: _250  and  _253
REMARK  106  A    between atoms: _253  and  _254
REMARK  107  A    between atoms: _254  and  _255
REMARK  108  A    between atoms: _255  and  _256
REMARK  109  A    between atoms: _265  and  _267
REMARK  110  A    between atoms: _267  and  _268
REMARK  111  A    between atoms: _267  and  _270
REMARK  112  A    between atoms: _270  and  _271
REMARK  113  A    between atoms: _274  and  _276
REMARK  114  A    between atoms: _276  and  _277
REMARK  115  A    between atoms: _276  and  _279
REMARK  116  A    between atoms: _279  and  _280
REMARK  117  A    between atoms: _283  and  _285
REMARK  118  A    between atoms: _285  and  _286
REMARK  119  A    between atoms: _285  and  _288
REMARK  120  A    between atoms: _288  and  _289
REMARK  121  A    between atoms: _292  and  _294
REMARK  122  A    between atoms: _294  and  _295
REMARK  123  A    between atoms: _294  and  _297
REMARK  124  A    between atoms: _297  and  _298
REMARK  125  A    between atoms: _301  and  _303
REMARK  126  A    between atoms: _303  and  _304
REMARK  127  A    between atoms: _306  and  _308
REMARK  128  A    between atoms: _308  and  _309
REMARK  129  A    between atoms: _312  and  _314
REMARK  130  A    between atoms: _314  and  _315
REMARK  131  A    between atoms: _314  and  _317
REMARK  132  A    between atoms: _317  and  _318
REMARK  133  A    between atoms: _321  and  _323
REMARK  134  A    between atoms: _323  and  _324
REMARK  135  A    between atoms: _323  and  _326
REMARK  136  A    between atoms: _326  and  _327
REMARK  137  A    between atoms: _330  and  _332
REMARK  138  A    between atoms: _332  and  _333
REMARK  139  A    between atoms: _332  and  _335
REMARK  140  A    between atoms: _335  and  _336
REMARK  141  A    between atoms: _339  and  _341
REMARK  142  A    between atoms: _341  and  _342
REMARK  143  A    between atoms: _341  and  _344
REMARK  144  A    between atoms: _347  and  _349
REMARK  145  A    between atoms: _349  and  _350
REMARK  146  A    between atoms: _349  and  _352
REMARK  147  A    between atoms: _352  and  _353
REMARK  148  A    between atoms: _353  and  _354
REMARK  149  A    between atoms: _356  and  _358
REMARK  150  A    between atoms: _358  and  _359
REMARK  151  A    between atoms: _358  and  _361
REMARK  152  A    between atoms: _361  and  _362
REMARK  153  A    between atoms: _365  and  _367
REMARK  154  A    between atoms: _367  and  _368
REMARK  155  A    between atoms: _370  and  _372
REMARK  156  A    between atoms: _372  and  _373
REMARK  157  A    between atoms: _375  and  _377
REMARK  158  A    between atoms: _377  and  _378
REMARK  159  A    between atoms: _377  and  _380
REMARK  160  A    between atoms: _380  and  _381
REMARK  161  A    between atoms: _384  and  _386
REMARK  162  A    between atoms: _386  and  _387
REMARK  163  A    between atoms: _389  and  _391
REMARK  164  A    between atoms: _391  and  _392
REMARK  165  A    between atoms: _394  and  _396
REMARK  166  A    between atoms: _396  and  _397
REMARK  167  A    between atoms: _396  and  _399
REMARK  168  A    between atoms: _399  and  _400
REMARK  169  A    between atoms: _403  and  _405
REMARK  170  A    between atoms: _405  and  _406
REMARK  171  A    between atoms: _405  and  _408
REMARK  172  A    between atoms: _411  and  _413
REMARK  173  A    between atoms: _413  and  _414
REMARK  174  A    between atoms: _413  and  _416
REMARK  175  A    between atoms: _416  and  _417
REMARK  176  A    between atoms: _421  and  _422
REMARK  177  A    between atoms: _427  and  _429
REMARK  178  A    between atoms: _429  and  _430
REMARK  179  A    between atoms: _429  and  _432
REMARK  180  A    between atoms: _432  and  _433
REMARK  181  A    between atoms: _437  and  _438
REMARK  182  A    between atoms: _443  and  _445
REMARK  183  A    between atoms: _445  and  _446
REMARK  184  A    between atoms: _445  and  _448
REMARK  185  A    between atoms: _451  and  _453
REMARK  186  A    between atoms: _453  and  _454
REMARK  187  A    between atoms: _453  and  _456
REMARK  188  A    between atoms: _456  and  _457
REMARK  189  A    between atoms: _462  and  _464
REMARK  190  A    between atoms: _464  and  _465
REMARK  191  A    between atoms: _464  and  _467
REMARK  192  A    between atoms: _467  and  _468
REMARK  193  A    between atoms: _471  and  _473
REMARK  194  A    between atoms: _473  and  _474
REMARK  195  A    between atoms: _473  and  _476
REMARK  196  A    between atoms: _476  and  _477
REMARK  197  A    between atoms: _480  and  _482
REMARK  198  A    between atoms: _482  and  _483
REMARK  199  A    between atoms: _485  and  _487
REMARK  200  A    between atoms: _487  and  _488
REMARK  201  A    between atoms: _487  and  _490
REMARK  202  A    between atoms: _490  and  _491
REMARK  203  A    between atoms: _491  and  _492
REMARK  204  A    between atoms: _492  and  _493
REMARK  205  A    between atoms: _502  and  _504
REMARK  206  A    between atoms: _504  and  _505
REMARK  207  A    between atoms: _504  and  _507
REMARK  208  A    between atoms: _507  and  _508
REMARK                            x       y       z     vdW  Elec       q    Type
REMARK                         _______ _______ _______ _____ _____    ______ ____
ROOT
ATOM      1  O   HOH     1      16.753 -13.616   3.990  0.00  0.00    +0.000 OA
ENDROOT
TORSDOF 0
REMARK  Name = ../refined-set-2016/3lzu/3lzu_pocket.pdb
REMARK  208 active torsions:
REMARK  status: ('A' for Active; 'I' for Inactive)
REMARK    1  A    between atoms: _1  and  _3
REMARK    2  A    between atoms: _3  and  _4
REMARK    3  A    between atoms: _3  and  _6
REMARK    4  A    between atoms: _6  and  _7
REMARK    5  A    between atoms: _7  and  _8
REMARK    6  A    between atoms: _8  and  _9
REMARK    7  A    between atoms: _18  and  _20
REMARK    8  A    between atoms: _20  and  _21
REMARK    9  A    between atoms: _20  and  _23
REMARK   10  A    between atoms: _23  and  _24
REMARK   11  A    between atoms: _27  and  _29
REMARK   12  A    between atoms: _29  and  _30
REMARK   13  A    between atoms: _29  and  _32
REMARK   14  A    between atoms: _32  and  _33
REMARK   15  A    between atoms: _36  and  _38
REMARK   16  A    between atoms: _38  and  _39
REMARK   17  A    between atoms: _38  and  _41
REMARK   18  A    between atoms: _41  and  _42
REMARK   19  A    between atoms: _45  and  _47
REMARK   20  A    between atoms: _47  and  _48
REMARK   21  A    between atoms: _47  and  _50
REMARK   22  A    between atoms: _50  and  _51
REMARK   23  A    between atoms: _54  and  _56
REMARK   24  A    between atoms: _56  and  _57
REMARK   25  A    between atoms: _59  and  _61
REMARK   26  A    between atoms: _61  and  _62
REMARK   27  A    between atoms: _65  and  _67
REMARK   28  A    between atoms: _67  and  _68
REMARK   29  A    between atoms: _67  and  _70
REMARK   30  A    between atoms: _70  and  _71
REMARK   31  A    between atoms: _74  and  _76
REMARK   32  A    between atoms: _76  and  _77
REMARK   33  A    between atoms: _76  and  _79
REMARK   34  A    between atoms: _79  and  _80
REMARK   35  A    between atoms: _83  and  _85
REMARK   36  A    between atoms: _85  and  _86
REMARK   37  A    between atoms: _85  and  _88
REMARK   38  A    between atoms: _88  and  _89
REMARK   39  A    between atoms: _92  and  _94
REMARK   40  A    between atoms: _94  and  _95
REMARK   41  A    between atoms: _94  and  _97
REMARK   42  A    between atoms: _100  and  _102
REMARK   43  A    between atoms: _102  and  _103
REMARK   44  A    between atoms: _102  and  _105
REMARK   45  A    between atoms: _105  and  _106
REMARK   46  A    between atoms: _106  and  _107
REMARK   47  A    between atoms: _109  and  _111
REMARK   48  A    between atoms: _111  and  _112
REMARK   49  A    between atoms: _111  and  _114
REMARK   50  A    between atoms: _114  and  _115
REMARK   51  A    between atoms: _118  and  _120
REMARK   52  A    between atoms: _120  and  _121
REMARK   53  A    between atoms: _123  and  _125
REMARK   54  A    between atoms: _125  and  _126
REMARK   55  A    between atoms: _128  and  _130
REMARK   56  A    between atoms: _130  and  _131
REMARK   57  A    between atoms: _130  and  _133
REMARK   58  A    between atoms: _133  and  _134
REMARK   59  A    between atoms: _137  and  _139
REMARK   60  A    between atoms: _139  and  _140
REMARK   61  A    between atoms: _142  and  _144
REMARK   62  A    between atoms: _144  and  _145
REMARK   63  A    between atoms: _147  and  _149
REMARK   64  A    between atoms: _149  and  _150
REMARK   65  A    between atoms: _149  and  _152
REMARK   66  A    between atoms: _152  and  _153
REMARK   67  A    between atoms: _156  and  _158
REMARK   68  A    between atoms: _158  and  _159
REMARK   69  A    between atoms: _158  and  _161
REMARK   70  A    between atoms: _161  and  _162
REMARK   71  A    between atoms: _165  and  _167
REMARK   72  A    between atoms: _167  and  _168
REMARK   73  A    between atoms: _167  and  _170
REMARK   74  A    between atoms: _170  and  _171
REMARK   75  A    between atoms: _175  and  _176
REMARK   76  A    between atoms: _181  and  _183
REMARK   77  A    between atoms: _183  and  _184
REMARK   78  A    between atoms: _183  and  _186
REMARK   79  A    between atoms: _189  and  _191
REMARK   80  A    between atoms: _191  and  _192
REMARK   81  A    between atoms: _191  and  _194
REMARK   82  A    between atoms: _194  and  _195
REMARK   83  A    between atoms: _200  and  _202
REMARK   84  A    between atoms: _202  and  _203
REMARK   85  A    between atoms: _202  and  _205
REMARK   86  A    between atoms: _205  and  _206
REMARK   87  A    between atoms: _209  and  _211
REMARK   88  A    between atoms: _211  and  _212
REMARK   89  A    between atoms: _211  and  _214
REMARK   90  A    between atoms: _214  and  _215
REMARK   91  A    between atoms: _218  and  _220
REMARK   92  A    between atoms: _220  and  _221
REMARK   93  A    between atoms: _223  and  _225
REMARK   94  A    between atoms: _225  and  _226
REMARK   95  A    between atoms: _225  and  _228
REMARK   96  A    between atoms: _228  and  _229
REMARK   97  A    between atoms: _229  and  _230
REMARK   98  A    between atoms: _230  and  _231
REMARK   99  A    between atoms: _240  and  _242
REMARK  100  A    between atoms: _242  and  _243
REMARK  101  A    between atoms: _242  and  _245
REMARK  102  A    between atoms: _245  and  _246
REMARK  103  A    between atoms: _248  and  _250
REMARK  104  A    between atoms: _250  and  _251
REMARK  105  A    between atoms: _250  and  _253
REMARK  106  A    between atoms: _253  and  _254
REMARK  107  A    between atoms: _254  and  _255
REMARK  108  A    between atoms: _255  and  _256
REMARK  109  A    between atoms: _265  and  _267
REMARK  110  A    between atoms: _267  and  _268
REMARK  111  A    between atoms: _267  and  _270
REMARK  112  A    between atoms: _270  and  _271
REMARK  113  A    between atoms: _274  and  _276
REMARK  114  A    between atoms: _276  and  _277
REMARK  115  A    between atoms: _276  and  _279
REMARK  116  A    between atoms: _279  and  _280
REMARK  117  A    between atoms: _283  and  _285
REMARK  118  A    between atoms: _285  and  _286
REMARK  119  A    between atoms: _285  and  _288
REMARK  120  A    between atoms: _288  and  _289
REMARK  121  A    between atoms: _292  and  _294
REMARK  122  A    between atoms: _294  and  _295
REMARK  123  A    between atoms: _294  and  _297
REMARK  124  A    between atoms: _297  and  _298
REMARK  125  A    between atoms: _301  and  _303
REMARK  126  A    between atoms: _303  and  _304
REMARK  127  A    between atoms: _306  and  _308
REMARK  128  A    between atoms: _308  and  _309
REMARK  129  A    between atoms: _312  and  _314
REMARK  130  A    between atoms: _314  and  _315
REMARK  131  A    between atoms: _314  and  _317
REMARK  132  A    between atoms: _317  and  _318
REMARK  133  A    between atoms: _321  and  _323
REMARK  134  A    between atoms: _323  and  _324
REMARK  135  A    between atoms: _323  and  _326
REMARK  136  A    between atoms: _326  and  _327
REMARK  137  A    between atoms: _330  and  _332
REMARK  138  A    between atoms: _332  and  _333
REMARK  139  A    between atoms: _332  and  _335
REMARK  140  A    between atoms: _335  and  _336
REMARK  141  A    between atoms: _339  and  _341
REMARK  142  A    between atoms: _341  and  _342
REMARK  143  A    between atoms: _341  and  _344
REMARK  144  A    between atoms: _347  and  _349
REMARK  145  A    between atoms: _349  and  _350
REMARK  146  A    between atoms: _349  and  _352
REMARK  147  A    between atoms: _352  and  _353
REMARK  148  A    between atoms: _353  and  _354
REMARK  149  A    between atoms: _356  and  _358
REMARK  150  A    between atoms: _358  and  _359
REMARK  151  A    between atoms: _358  and  _361
REMARK  152  A    between atoms: _361  and  _362
REMARK  153  A    between atoms: _365  and  _367
REMARK  154  A    between atoms: _367  and  _368
REMARK  155  A    between atoms: _370  and  _372
REMARK  156  A    between atoms: _372  and  _373
REMARK  157  A    between atoms: _375  and  _377
REMARK  158  A    between atoms: _377  and  _378
REMARK  159  A    between atoms: _377  and  _380
REMARK  160  A    between atoms: _380  and  _381
REMARK  161  A    between atoms: _384  and  _386
REMARK  162  A    between atoms: _386  and  _387
REMARK  163  A    between atoms: _389  and  _391
REMARK  164  A    between atoms: _391  and  _392
REMARK  165  A    between atoms: _394  and  _396
REMARK  166  A    between atoms: _396  and  _397
REMARK  167  A    between atoms: _396  and  _399
REMARK  168  A    between atoms: _399  and  _400
REMARK  169  A    between atoms: _403  and  _405
REMARK  170  A    between atoms: _405  and  _406
REMARK  171  A    between atoms: _405  and  _408
REMARK  172  A    between atoms: _411  and  _413
REMARK  173  A    between atoms: _413  and  _414
REMARK  174  A    between atoms: _413  and  _416
REMARK  175  A    between atoms: _416  and  _417
REMARK  176  A    between atoms: _421  and  _422
REMARK  177  A    between atoms: _427  and  _429
REMARK  178  A    between atoms: _429  and  _430
REMARK  179  A    between atoms: _429  and  _432
REMARK  180  A    between atoms: _432  and  _433
REMARK  181  A    between atoms: _437  and  _438
REMARK  182  A    between atoms: _443  and  _445
REMARK  183  A    between atoms: _445  and  _446
REMARK  184  A    between atoms: _445  and  _448
REMARK  185  A    between atoms: _451  and  _453
REMARK  186  A    between atoms: _453  and  _454
REMARK  187  A    between atoms: _453  and  _456
REMARK  188  A    between atoms: _456  and  _457
REMARK  189  A    between atoms: _462  and  _464
REMARK  190  A    between atoms: _464  and  _465
REMARK  191  A    between atoms: _464  and  _467
REMARK  192  A    between atoms: _467  and  _468
REMARK  193  A    between atoms: _471  and  _473
REMARK  194  A    between atoms: _473  and  _474
REMARK  195  A    between atoms: _473  and  _476
REMARK  196  A    between atoms: _476  and  _477
REMARK  197  A    between atoms: _480  and  _482
REMARK  198  A    between atoms: _482  and  _483
REMARK  199  A    between atoms: _485  and  _487
REMARK  200  A    between atoms: _487  and  _488
REMARK  201  A    between atoms: _487  and  _490
REMARK  202  A    between atoms: _490  and  _491
REMARK  203  A    between atoms: _491  and  _492
REMARK  204  A    between atoms: _492  and  _493
REMARK  205  A    between atoms: _502  and  _504
REMARK  206  A    between atoms: _504  and  _505
REMARK  207  A    between atoms: _504  and  _507
REMARK  208  A    between atoms: _507  and  _508
REMARK                            x       y       z     vdW  Elec       q    Type
REMARK                         _______ _______ _______ _____ _____    ______ ____
ROOT
ATOM      1  O   HOH     1      10.589 -14.770  10.650  0.00  0.00    +0.000 OA
ENDROOT
TORSDOF 0
REMARK  Name = ../refined-set-2016/3lzu/3lzu_pocket.pdb
REMARK  208 active torsions:
REMARK  status: ('A' for Active; 'I' for Inactive)
REMARK    1  A    between atoms: _1  and  _3
REMARK    2  A    between atoms: _3  and  _4
REMARK    3  A    between atoms: _3  and  _6
REMARK    4  A    between atoms: _6  and  _7
REMARK    5  A    between atoms: _7  and  _8
REMARK    6  A    between atoms: _8  and  _9
REMARK    7  A    between atoms: _18  and  _20
REMARK    8  A    between atoms: _20  and  _21
REMARK    9  A    between atoms: _20  and  _23
REMARK   10  A    between atoms: _23  and  _24
REMARK   11  A    between atoms: _27  and  _29
REMARK   12  A    between atoms: _29  and  _30
REMARK   13  A    between atoms: _29  and  _32
REMARK   14  A    between atoms: _32  and  _33
REMARK   15  A    between atoms: _36  and  _38
REMARK   16  A    between atoms: _38  and  _39
REMARK   17  A    between atoms: _38  and  _41
REMARK   18  A    between atoms: _41  and  _42
REMARK   19  A    between atoms: _45  and  _47
REMARK   20  A    between atoms: _47  and  _48
REMARK   21  A    between atoms: _47  and  _50
REMARK   22  A    between atoms: _50  and  _51
REMARK   23  A    between atoms: _54  and  _56
REMARK   24  A    between atoms: _56  and  _57
REMARK   25  A    between atoms: _59  and  _61
REMARK   26  A    between atoms: _61  and  _62
REMARK   27  A    between atoms: _65  and  _67
REMARK   28  A    between atoms: _67  and  _68
REMARK   29  A    between atoms: _67  and  _70
REMARK   30  A    between atoms: _70  and  _71
REMARK   31  A    between atoms: _74  and  _76
REMARK   32  A    between atoms: _76  and  _77
REMARK   33  A    between atoms: _76  and  _79
REMARK   34  A    between atoms: _79  and  _80
REMARK   35  A    between atoms: _83  and  _85
REMARK   36  A    between atoms: _85  and  _86
REMARK   37  A    between atoms: _85  and  _88
REMARK   38  A    between atoms: _88  and  _89
REMARK   39  A    between atoms: _92  and  _94
REMARK   40  A    between atoms: _94  and  _95
REMARK   41  A    between atoms: _94  and  _97
REMARK   42  A    between atoms: _100  and  _102
REMARK   43  A    between atoms: _102  and  _103
REMARK   44  A    between atoms: _102  and  _105
REMARK   45  A    between atoms: _105  and  _106
REMARK   46  A    between atoms: _106  and  _107
REMARK   47  A    between atoms: _109  and  _111
REMARK   48  A    between atoms: _111  and  _112
REMARK   49  A    between atoms: _111  and  _114
REMARK   50  A    between atoms: _114  and  _115
REMARK   51  A    between atoms: _118  and  _120
REMARK   52  A    between atoms: _120  and  _121
REMARK   53  A    between atoms: _123  and  _125
REMARK   54  A    between atoms: _125  and  _126
REMARK   55  A    between atoms: _128  and  _130
REMARK   56  A    between atoms: _130  and  _131
REMARK   57  A    between atoms: _130  and  _133
REMARK   58  A    between atoms: _133  and  _134
REMARK   59  A    between atoms: _137  and  _139
REMARK   60  A    between atoms: _139  and  _140
REMARK   61  A    between atoms: _142  and  _144
REMARK   62  A    between atoms: _144  and  _145
REMARK   63  A    between atoms: _147  and  _149
REMARK   64  A    between atoms: _149  and  _150
REMARK   65  A    between atoms: _149  and  _152
REMARK   66  A    between atoms: _152  and  _153
REMARK   67  A    between atoms: _156  and  _158
REMARK   68  A    between atoms: _158  and  _159
REMARK   69  A    between atoms: _158  and  _161
REMARK   70  A    between atoms: _161  and  _162
REMARK   71  A    between atoms: _165  and  _167
REMARK   72  A    between atoms: _167  and  _168
REMARK   73  A    between atoms: _167  and  _170
REMARK   74  A    between atoms: _170  and  _171
REMARK   75  A    between atoms: _175  and  _176
REMARK   76  A    between atoms: _181  and  _183
REMARK   77  A    between atoms: _183  and  _184
REMARK   78  A    between atoms: _183  and  _186
REMARK   79  A    between atoms: _189  and  _191
REMARK   80  A    between atoms: _191  and  _192
REMARK   81  A    between atoms: _191  and  _194
REMARK   82  A    between atoms: _194  and  _195
REMARK   83  A    between atoms: _200  and  _202
REMARK   84  A    between atoms: _202  and  _203
REMARK   85  A    between atoms: _202  and  _205
REMARK   86  A    between atoms: _205  and  _206
REMARK   87  A    between atoms: _209  and  _211
REMARK   88  A    between atoms: _211  and  _212
REMARK   89  A    between atoms: _211  and  _214
REMARK   90  A    between atoms: _214  and  _215
REMARK   91  A    between atoms: _218  and  _220
REMARK   92  A    between atoms: _220  and  _221
REMARK   93  A    between atoms: _223  and  _225
REMARK   94  A    between atoms: _225  and  _226
REMARK   95  A    between atoms: _225  and  _228
REMARK   96  A    between atoms: _228  and  _229
REMARK   97  A    between atoms: _229  and  _230
REMARK   98  A    between atoms: _230  and  _231
REMARK   99  A    between atoms: _240  and  _242
REMARK  100  A    between atoms: _242  and  _243
REMARK  101  A    between atoms: _242  and  _245
REMARK  102  A    between atoms: _245  and  _246
REMARK  103  A    between atoms: _248  and  _250
REMARK  104  A    between atoms: _250  and  _251
REMARK  105  A    between atoms: _250  and  _253
REMARK  106  A    between atoms: _253  and  _254
REMARK  107  A    between atoms: _254  and  _255
REMARK  108  A    between atoms: _255  and  _256
REMARK  109  A    between atoms: _265  and  _267
REMARK  110  A    between atoms: _267  and  _268
REMARK  111  A    between atoms: _267  and  _270
REMARK  112  A    between atoms: _270  and  _271
REMARK  113  A    between atoms: _274  and  _276
REMARK  114  A    between atoms: _276  and  _277
REMARK  115  A    between atoms: _276  and  _279
REMARK  116  A    between atoms: _279  and  _280
REMARK  117  A    between atoms: _283  and  _285
REMARK  118  A    between atoms: _285  and  _286
REMARK  119  A    between atoms: _285  and  _288
REMARK  120  A    between atoms: _288  and  _289
REMARK  121  A    between atoms: _292  and  _294
REMARK  122  A    between atoms: _294  and  _295
REMARK  123  A    between atoms: _294  and  _297
REMARK  124  A    between atoms: _297  and  _298
REMARK  125  A    between atoms: _301  and  _303
REMARK  126  A    between atoms: _303  and  _304
REMARK  127  A    between atoms: _306  and  _308
REMARK  128  A    between atoms: _308  and  _309
REMARK  129  A    between atoms: _312  and  _314
REMARK  130  A    between atoms: _314  and  _315
REMARK  131  A    between atoms: _314  and  _317
REMARK  132  A    between atoms: _317  and  _318
REMARK  133  A    between atoms: _321  and  _323
REMARK  134  A    between atoms: _323  and  _324
REMARK  135  A    between atoms: _323  and  _326
REMARK  136  A    between atoms: _326  and  _327
REMARK  137  A    between atoms: _330  and  _332
REMARK  138  A    between atoms: _332  and  _333
REMARK  139  A    between atoms: _332  and  _335
REMARK  140  A    between atoms: _335  and  _336
REMARK  141  A    between atoms: _339  and  _341
REMARK  142  A    between atoms: _341  and  _342
REMARK  143  A    between atoms: _341  and  _344
REMARK  144  A    between atoms: _347  and  _349
REMARK  145  A    between atoms: _349  and  _350
REMARK  146  A    between atoms: _349  and  _352
REMARK  147  A    between atoms: _352  and  _353
REMARK  148  A    between atoms: _353  and  _354
REMARK  149  A    between atoms: _356  and  _358
REMARK  150  A    between atoms: _358  and  _359
REMARK  151  A    between atoms: _358  and  _361
REMARK  152  A    between atoms: _361  and  _362
REMARK  153  A    between atoms: _365  and  _367
REMARK  154  A    between atoms: _367  and  _368
REMARK  155  A    between atoms: _370  and  _372
REMARK  156  A    between atoms: _372  and  _373
REMARK  157  A    between atoms: _375  and  _377
REMARK  158  A    between atoms: _377  and  _378
REMARK  159  A    between atoms: _377  and  _380
REMARK  160  A    between atoms: _380  and  _381
REMARK  161  A    between atoms: _384  and  _386
REMARK  162  A    between atoms: _386  and  _387
REMARK  163  A    between atoms: _389  and  _391
REMARK  164  A    between atoms: _391  and  _392
REMARK  165  A    between atoms: _394  and  _396
REMARK  166  A    between atoms: _396  and  _397
REMARK  167  A    between atoms: _396  and  _399
REMARK  168  A    between atoms: _399  and  _400
REMARK  169  A    between atoms: _403  and  _405
REMARK  170  A    between atoms: _405  and  _406
REMARK  171  A    between atoms: _405  and  _408
REMARK  172  A    between atoms: _411  and  _413
REMARK  173  A    between atoms: _413  and  _414
REMARK  174  A    between atoms: _413  and  _416
REMARK  175  A    between atoms: _416  and  _417
REMARK  176  A    between atoms: _421  and  _422
REMARK  177  A    between atoms: _427  and  _429
REMARK  178  A    between atoms: _429  and  _430
REMARK  179  A    between atoms: _429  and  _432
REMARK  180  A    between atoms: _432  and  _433
REMARK  181  A    between atoms: _437  and  _438
REMARK  182  A    between atoms: _443  and  _445
REMARK  183  A    between atoms: _445  and  _446
REMARK  184  A    between atoms: _445  and  _448
REMARK  185  A    between atoms: _451  and  _453
REMARK  186  A    between atoms: _453  and  _454
REMARK  187  A    between atoms: _453  and  _456
REMARK  188  A    between atoms: _456  and  _457
REMARK  189  A    between atoms: _462  and  _464
REMARK  190  A    between atoms: _464  and  _465
REMARK  191  A    between atoms: _464  and  _467
REMARK  192  A    between atoms: _467  and  _468
REMARK  193  A    between atoms: _471  and  _473
REMARK  194  A    between atoms: _473  and  _474
REMARK  195  A    between atoms: _473  and  _476
REMARK  196  A    between atoms: _476  and  _477
REMARK  197  A    between atoms: _480  and  _482
REMARK  198  A    between atoms: _482  and  _483
REMARK  199  A    between atoms: _485  and  _487
REMARK  200  A    between atoms: _487  and  _488
REMARK  201  A    between atoms: _487  and  _490
REMARK  202  A    between atoms: _490  and  _491
REMARK  203  A    between atoms: _491  and  _492
REMARK  204  A    between atoms: _492  and  _493
REMARK  205  A    between atoms: _502  and  _504
REMARK  206  A    between atoms: _504  and  _505
REMARK  207  A    between atoms: _504  and  _507
REMARK  208  A    between atoms: _507  and  _508
REMARK                            x       y       z     vdW  Elec       q    Type
REMARK                         _______ _______ _______ _____ _____    ______ ____
ROOT
ATOM      1  O   HOH     1       7.961 -23.694  -4.320  0.00  0.00    +0.000 OA
ENDROOT
TORSDOF 0
REMARK  Name = ../refined-set-2016/3lzu/3lzu_pocket.pdb
REMARK  208 active torsions:
REMARK  status: ('A' for Active; 'I' for Inactive)
REMARK    1  A    between atoms: _1  and  _3
REMARK    2  A    between atoms: _3  and  _4
REMARK    3  A    between atoms: _3  and  _6
REMARK    4  A    between atoms: _6  and  _7
REMARK    5  A    between atoms: _7  and  _8
REMARK    6  A    between atoms: _8  and  _9
REMARK    7  A    between atoms: _18  and  _20
REMARK    8  A    between atoms: _20  and  _21
REMARK    9  A    between atoms: _20  and  _23
REMARK   10  A    between atoms: _23  and  _24
REMARK   11  A    between atoms: _27  and  _29
REMARK   12  A    between atoms: _29  and  _30
REMARK   13  A    between atoms: _29  and  _32
REMARK   14  A    between atoms: _32  and  _33
REMARK   15  A    between atoms: _36  and  _38
REMARK   16  A    between atoms: _38  and  _39
REMARK   17  A    between atoms: _38  and  _41
REMARK   18  A    between atoms: _41  and  _42
REMARK   19  A    between atoms: _45  and  _47
REMARK   20  A    between atoms: _47  and  _48
REMARK   21  A    between atoms: _47  and  _50
REMARK   22  A    between atoms: _50  and  _51
REMARK   23  A    between atoms: _54  and  _56
REMARK   24  A    between atoms: _56  and  _57
REMARK   25  A    between atoms: _59  and  _61
REMARK   26  A    between atoms: _61  and  _62
REMARK   27  A    between atoms: _65  and  _67
REMARK   28  A    between atoms: _67  and  _68
REMARK   29  A    between atoms: _67  and  _70
REMARK   30  A    between atoms: _70  and  _71
REMARK   31  A    between atoms: _74  and  _76
REMARK   32  A    between atoms: _76  and  _77
REMARK   33  A    between atoms: _76  and  _79
REMARK   34  A    between atoms: _79  and  _80
REMARK   35  A    between atoms: _83  and  _85
REMARK   36  A    between atoms: _85  and  _86
REMARK   37  A    between atoms: _85  and  _88
REMARK   38  A    between atoms: _88  and  _89
REMARK   39  A    between atoms: _92  and  _94
REMARK   40  A    between atoms: _94  and  _95
REMARK   41  A    between atoms: _94  and  _97
REMARK   42  A    between atoms: _100  and  _102
REMARK   43  A    between atoms: _102  and  _103
REMARK   44  A    between atoms: _102  and  _105
REMARK   45  A    between atoms: _105  and  _106
REMARK   46  A    between atoms: _106  and  _107
REMARK   47  A    between atoms: _109  and  _111
REMARK   48  A    between atoms: _111  and  _112
REMARK   49  A    between atoms: _111  and  _114
REMARK   50  A    between atoms: _114  and  _115
REMARK   51  A    between atoms: _118  and  _120
REMARK   52  A    between atoms: _120  and  _121
REMARK   53  A    between atoms: _123  and  _125
REMARK   54  A    between atoms: _125  and  _126
REMARK   55  A    between atoms: _128  and  _130
REMARK   56  A    between atoms: _130  and  _131
REMARK   57  A    between atoms: _130  and  _133
REMARK   58  A    between atoms: _133  and  _134
REMARK   59  A    between atoms: _137  and  _139
REMARK   60  A    between atoms: _139  and  _140
REMARK   61  A    between atoms: _142  and  _144
REMARK   62  A    between atoms: _144  and  _145
REMARK   63  A    between atoms: _147  and  _149
REMARK   64  A    between atoms: _149  and  _150
REMARK   65  A    between atoms: _149  and  _152
REMARK   66  A    between atoms: _152  and  _153
REMARK   67  A    between atoms: _156  and  _158
REMARK   68  A    between atoms: _158  and  _159
REMARK   69  A    between atoms: _158  and  _161
REMARK   70  A    between atoms: _161  and  _162
REMARK   71  A    between atoms: _165  and  _167
REMARK   72  A    between atoms: _167  and  _168
REMARK   73  A    between atoms: _167  and  _170
REMARK   74  A    between atoms: _170  and  _171
REMARK   75  A    between atoms: _175  and  _176
REMARK   76  A    between atoms: _181  and  _183
REMARK   77  A    between atoms: _183  and  _184
REMARK   78  A    between atoms: _183  and  _186
REMARK   79  A    between atoms: _189  and  _191
REMARK   80  A    between atoms: _191  and  _192
REMARK   81  A    between atoms: _191  and  _194
REMARK   82  A    between atoms: _194  and  _195
REMARK   83  A    between atoms: _200  and  _202
REMARK   84  A    between atoms: _202  and  _203
REMARK   85  A    between atoms: _202  and  _205
REMARK   86  A    between atoms: _205  and  _206
REMARK   87  A    between atoms: _209  and  _211
REMARK   88  A    between atoms: _211  and  _212
REMARK   89  A    between atoms: _211  and  _214
REMARK   90  A    between atoms: _214  and  _215
REMARK   91  A    between atoms: _218  and  _220
REMARK   92  A    between atoms: _220  and  _221
REMARK   93  A    between atoms: _223  and  _225
REMARK   94  A    between atoms: _225  and  _226
REMARK   95  A    between atoms: _225  and  _228
REMARK   96  A    between atoms: _228  and  _229
REMARK   97  A    between atoms: _229  and  _230
REMARK   98  A    between atoms: _230  and  _231
REMARK   99  A    between atoms: _240  and  _242
REMARK  100  A    between atoms: _242  and  _243
REMARK  101  A    between atoms: _242  and  _245
REMARK  102  A    between atoms: _245  and  _246
REMARK  103  A    between atoms: _248  and  _250
REMARK  104  A    between atoms: _250  and  _251
REMARK  105  A    between atoms: _250  and  _253
REMARK  106  A    between atoms: _253  and  _254
REMARK  107  A    between atoms: _254  and  _255
REMARK  108  A    between atoms: _255  and  _256
REMARK  109  A    between atoms: _265  and  _267
REMARK  110  A    between atoms: _267  and  _268
REMARK  111  A    between atoms: _267  and  _270
REMARK  112  A    between atoms: _270  and  _271
REMARK  113  A    between atoms: _274  and  _276
REMARK  114  A    between atoms: _276  and  _277
REMARK  115  A    between atoms: _276  and  _279
REMARK  116  A    between atoms: _279  and  _280
REMARK  117  A    between atoms: _283  and  _285
REMARK  118  A    between atoms: _285  and  _286
REMARK  119  A    between atoms: _285  and  _288
REMARK  120  A    between atoms: _288  and  _289
REMARK  121  A    between atoms: _292  and  _294
REMARK  122  A    between atoms: _294  and  _295
REMARK  123  A    between atoms: _294  and  _297
REMARK  124  A    between atoms: _297  and  _298
REMARK  125  A    between atoms: _301  and  _303
REMARK  126  A    between atoms: _303  and  _304
REMARK  127  A    between atoms: _306  and  _308
REMARK  128  A    between atoms: _308  and  _309
REMARK  129  A    between atoms: _312  and  _314
REMARK  130  A    between atoms: _314  and  _315
REMARK  131  A    between atoms: _314  and  _317
REMARK  132  A    between atoms: _317  and  _318
REMARK  133  A    between atoms: _321  and  _323
REMARK  134  A    between atoms: _323  and  _324
REMARK  135  A    between atoms: _323  and  _326
REMARK  136  A    between atoms: _326  and  _327
REMARK  137  A    between atoms: _330  and  _332
REMARK  138  A    between atoms: _332  and  _333
REMARK  139  A    between atoms: _332  and  _335
REMARK  140  A    between atoms: _335  and  _336
REMARK  141  A    between atoms: _339  and  _341
REMARK  142  A    between atoms: _341  and  _342
REMARK  143  A    between atoms: _341  and  _344
REMARK  144  A    between atoms: _347  and  _349
REMARK  145  A    between atoms: _349  and  _350
REMARK  146  A    between atoms: _349  and  _352
REMARK  147  A    between atoms: _352  and  _353
REMARK  148  A    between atoms: _353  and  _354
REMARK  149  A    between atoms: _356  and  _358
REMARK  150  A    between atoms: _358  and  _359
REMARK  151  A    between atoms: _358  and  _361
REMARK  152  A    between atoms: _361  and  _362
REMARK  153  A    between atoms: _365  and  _367
REMARK  154  A    between atoms: _367  and  _368
REMARK  155  A    between atoms: _370  and  _372
REMARK  156  A    between atoms: _372  and  _373
REMARK  157  A    between atoms: _375  and  _377
REMARK  158  A    between atoms: _377  and  _378
REMARK  159  A    between atoms: _377  and  _380
REMARK  160  A    between atoms: _380  and  _381
REMARK  161  A    between atoms: _384  and  _386
REMARK  162  A    between atoms: _386  and  _387
REMARK  163  A    between atoms: _389  and  _391
REMARK  164  A    between atoms: _391  and  _392
REMARK  165  A    between atoms: _394  and  _396
REMARK  166  A    between atoms: _396  and  _397
REMARK  167  A    between atoms: _396  and  _399
REMARK  168  A    between atoms: _399  and  _400
REMARK  169  A    between atoms: _403  and  _405
REMARK  170  A    between atoms: _405  and  _406
REMARK  171  A    between atoms: _405  and  _408
REMARK  172  A    between atoms: _411  and  _413
REMARK  173  A    between atoms: _413  and  _414
REMARK  174  A    between atoms: _413  and  _416
REMARK  175  A    between atoms: _416  and  _417
REMARK  176  A    between atoms: _421  and  _422
REMARK  177  A    between atoms: _427  and  _429
REMARK  178  A    between atoms: _429  and  _430
REMARK  179  A    between atoms: _429  and  _432
REMARK  180  A    between atoms: _432  and  _433
REMARK  181  A    between atoms: _437  and  _438
REMARK  182  A    between atoms: _443  and  _445
REMARK  183  A    between atoms: _445  and  _446
REMARK  184  A    between atoms: _445  and  _448
REMARK  185  A    between atoms: _451  and  _453
REMARK  186  A    between atoms: _453  and  _454
REMARK  187  A    between atoms: _453  and  _456
REMARK  188  A    between atoms: _456  and  _457
REMARK  189  A    between atoms: _462  and  _464
REMARK  190  A    between atoms: _464  and  _465
REMARK  191  A    between atoms: _464  and  _467
REMARK  192  A    between atoms: _467  and  _468
REMARK  193  A    between atoms: _471  and  _473
REMARK  194  A    between atoms: _473  and  _474
REMARK  195  A    between atoms: _473  and  _476
REMARK  196  A    between atoms: _476  and  _477
REMARK  197  A    between atoms: _480  and  _482
REMARK  198  A    between atoms: _482  and  _483
REMARK  199  A    between atoms: _485  and  _487
REMARK  200  A    between atoms: _487  and  _488
REMARK  201  A    between atoms: _487  and  _490
REMARK  202  A    between atoms: _490  and  _491
REMARK  203  A    between atoms: _491  and  _492
REMARK  204  A    between atoms: _492  and  _493
REMARK  205  A    between atoms: _502  and  _504
REMARK  206  A    between atoms: _504  and  _505
REMARK  207  A    between atoms: _504  and  _507
REMARK  208  A    between atoms: _507  and  _508
REMARK                            x       y       z     vdW  Elec       q    Type
REMARK                         _______ _______ _______ _____ _____    ______ ____
ROOT
ATOM      1  O   HOH     1       6.027 -21.528  -4.217  0.00  0.00    +0.000 OA
ENDROOT
TORSDOF 0
REMARK  Name = ../refined-set-2016/3lzu/3lzu_pocket.pdb
REMARK  208 active torsions:
REMARK  status: ('A' for Active; 'I' for Inactive)
REMARK    1  A    between atoms: _1  and  _3
REMARK    2  A    between atoms: _3  and  _4
REMARK    3  A    between atoms: _3  and  _6
REMARK    4  A    between atoms: _6  and  _7
REMARK    5  A    between atoms: _7  and  _8
REMARK    6  A    between atoms: _8  and  _9
REMARK    7  A    between atoms: _18  and  _20
REMARK    8  A    between atoms: _20  and  _21
REMARK    9  A    between atoms: _20  and  _23
REMARK   10  A    between atoms: _23  and  _24
REMARK   11  A    between atoms: _27  and  _29
REMARK   12  A    between atoms: _29  and  _30
REMARK   13  A    between atoms: _29  and  _32
REMARK   14  A    between atoms: _32  and  _33
REMARK   15  A    between atoms: _36  and  _38
REMARK   16  A    between atoms: _38  and  _39
REMARK   17  A    between atoms: _38  and  _41
REMARK   18  A    between atoms: _41  and  _42
REMARK   19  A    between atoms: _45  and  _47
REMARK   20  A    between atoms: _47  and  _48
REMARK   21  A    between atoms: _47  and  _50
REMARK   22  A    between atoms: _50  and  _51
REMARK   23  A    between atoms: _54  and  _56
REMARK   24  A    between atoms: _56  and  _57
REMARK   25  A    between atoms: _59  and  _61
REMARK   26  A    between atoms: _61  and  _62
REMARK   27  A    between atoms: _65  and  _67
REMARK   28  A    between atoms: _67  and  _68
REMARK   29  A    between atoms: _67  and  _70
REMARK   30  A    between atoms: _70  and  _71
REMARK   31  A    between atoms: _74  and  _76
REMARK   32  A    between atoms: _76  and  _77
REMARK   33  A    between atoms: _76  and  _79
REMARK   34  A    between atoms: _79  and  _80
REMARK   35  A    between atoms: _83  and  _85
REMARK   36  A    between atoms: _85  and  _86
REMARK   37  A    between atoms: _85  and  _88
REMARK   38  A    between atoms: _88  and  _89
REMARK   39  A    between atoms: _92  and  _94
REMARK   40  A    between atoms: _94  and  _95
REMARK   41  A    between atoms: _94  and  _97
REMARK   42  A    between atoms: _100  and  _102
REMARK   43  A    between atoms: _102  and  _103
REMARK   44  A    between atoms: _102  and  _105
REMARK   45  A    between atoms: _105  and  _106
REMARK   46  A    between atoms: _106  and  _107
REMARK   47  A    between atoms: _109  and  _111
REMARK   48  A    between atoms: _111  and  _112
REMARK   49  A    between atoms: _111  and  _114
REMARK   50  A    between atoms: _114  and  _115
REMARK   51  A    between atoms: _118  and  _120
REMARK   52  A    between atoms: _120  and  _121
REMARK   53  A    between atoms: _123  and  _125
REMARK   54  A    between atoms: _125  and  _126
REMARK   55  A    between atoms: _128  and  _130
REMARK   56  A    between atoms: _130  and  _131
REMARK   57  A    between atoms: _130  and  _133
REMARK   58  A    between atoms: _133  and  _134
REMARK   59  A    between atoms: _137  and  _139
REMARK   60  A    between atoms: _139  and  _140
REMARK   61  A    between atoms: _142  and  _144
REMARK   62  A    between atoms: _144  and  _145
REMARK   63  A    between atoms: _147  and  _149
REMARK   64  A    between atoms: _149  and  _150
REMARK   65  A    between atoms: _149  and  _152
REMARK   66  A    between atoms: _152  and  _153
REMARK   67  A    between atoms: _156  and  _158
REMARK   68  A    between atoms: _158  and  _159
REMARK   69  A    between atoms: _158  and  _161
REMARK   70  A    between atoms: _161  and  _162
REMARK   71  A    between atoms: _165  and  _167
REMARK   72  A    between atoms: _167  and  _168
REMARK   73  A    between atoms: _167  and  _170
REMARK   74  A    between atoms: _170  and  _171
REMARK   75  A    between atoms: _175  and  _176
REMARK   76  A    between atoms: _181  and  _183
REMARK   77  A    between atoms: _183  and  _184
REMARK   78  A    between atoms: _183  and  _186
REMARK   79  A    between atoms: _189  and  _191
REMARK   80  A    between atoms: _191  and  _192
REMARK   81  A    between atoms: _191  and  _194
REMARK   82  A    between atoms: _194  and  _195
REMARK   83  A    between atoms: _200  and  _202
REMARK   84  A    between atoms: _202  and  _203
REMARK   85  A    between atoms: _202  and  _205
REMARK   86  A    between atoms: _205  and  _206
REMARK   87  A    between atoms: _209  and  _211
REMARK   88  A    between atoms: _211  and  _212
REMARK   89  A    between atoms: _211  and  _214
REMARK   90  A    between atoms: _214  and  _215
REMARK   91  A    between atoms: _218  and  _220
REMARK   92  A    between atoms: _220  and  _221
REMARK   93  A    between atoms: _223  and  _225
REMARK   94  A    between atoms: _225  and  _226
REMARK   95  A    between atoms: _225  and  _228
REMARK   96  A    between atoms: _228  and  _229
REMARK   97  A    between atoms: _229  and  _230
REMARK   98  A    between atoms: _230  and  _231
REMARK   99  A    between atoms: _240  and  _242
REMARK  100  A    between atoms: _242  and  _243
REMARK  101  A    between atoms: _242  and  _245
REMARK  102  A    between atoms: _245  and  _246
REMARK  103  A    between atoms: _248  and  _250
REMARK  104  A    between atoms: _250  and  _251
REMARK  105  A    between atoms: _250  and  _253
REMARK  106  A    between atoms: _253  and  _254
REMARK  107  A    between atoms: _254  and  _255
REMARK  108  A    between atoms: _255  and  _256
REMARK  109  A    between atoms: _265  and  _267
REMARK  110  A    between atoms: _267  and  _268
REMARK  111  A    between atoms: _267  and  _270
REMARK  112  A    between atoms: _270  and  _271
REMARK  113  A    between atoms: _274  and  _276
REMARK  114  A    between atoms: _276  and  _277
REMARK  115  A    between atoms: _276  and  _279
REMARK  116  A    between atoms: _279  and  _280
REMARK  117  A    between atoms: _283  and  _285
REMARK  118  A    between atoms: _285  and  _286
REMARK  119  A    between atoms: _285  and  _288
REMARK  120  A    between atoms: _288  and  _289
REMARK  121  A    between atoms: _292  and  _294
REMARK  122  A    between atoms: _294  and  _295
REMARK  123  A    between atoms: _294  and  _297
REMARK  124  A    between atoms: _297  and  _298
REMARK  125  A    between atoms: _301  and  _303
REMARK  126  A    between atoms: _303  and  _304
REMARK  127  A    between atoms: _306  and  _308
REMARK  128  A    between atoms: _308  and  _309
REMARK  129  A    between atoms: _312  and  _314
REMARK  130  A    between atoms: _314  and  _315
REMARK  131  A    between atoms: _314  and  _317
REMARK  132  A    between atoms: _317  and  _318
REMARK  133  A    between atoms: _321  and  _323
REMARK  134  A    between atoms: _323  and  _324
REMARK  135  A    between atoms: _323  and  _326
REMARK  136  A    between atoms: _326  and  _327
REMARK  137  A    between atoms: _330  and  _332
REMARK  138  A    between atoms: _332  and  _333
REMARK  139  A    between atoms: _332  and  _335
REMARK  140  A    between atoms: _335  and  _336
REMARK  141  A    between atoms: _339  and  _341
REMARK  142  A    between atoms: _341  and  _342
REMARK  143  A    between atoms: _341  and  _344
REMARK  144  A    between atoms: _347  and  _349
REMARK  145  A    between atoms: _349  and  _350
REMARK  146  A    between atoms: _349  and  _352
REMARK  147  A    between atoms: _352  and  _353
REMARK  148  A    between atoms: _353  and  _354
REMARK  149  A    between atoms: _356  and  _358
REMARK  150  A    between atoms: _358  and  _359
REMARK  151  A    between atoms: _358  and  _361
REMARK  152  A    between atoms: _361  and  _362
REMARK  153  A    between atoms: _365  and  _367
REMARK  154  A    between atoms: _367  and  _368
REMARK  155  A    between atoms: _370  and  _372
REMARK  156  A    between atoms: _372  and  _373
REMARK  157  A    between atoms: _375  and  _377
REMARK  158  A    between atoms: _377  and  _378
REMARK  159  A    between atoms: _377  and  _380
REMARK  160  A    between atoms: _380  and  _381
REMARK  161  A    between atoms: _384  and  _386
REMARK  162  A    between atoms: _386  and  _387
REMARK  163  A    between atoms: _389  and  _391
REMARK  164  A    between atoms: _391  and  _392
REMARK  165  A    between atoms: _394  and  _396
REMARK  166  A    between atoms: _396  and  _397
REMARK  167  A    between atoms: _396  and  _399
REMARK  168  A    between atoms: _399  and  _400
REMARK  169  A    between atoms: _403  and  _405
REMARK  170  A    between atoms: _405  and  _406
REMARK  171  A    between atoms: _405  and  _408
REMARK  172  A    between atoms: _411  and  _413
REMARK  173  A    between atoms: _413  and  _414
REMARK  174  A    between atoms: _413  and  _416
REMARK  175  A    between atoms: _416  and  _417
REMARK  176  A    between atoms: _421  and  _422
REMARK  177  A    between atoms: _427  and  _429
REMARK  178  A    between atoms: _429  and  _430
REMARK  179  A    between atoms: _429  and  _432
REMARK  180  A    between atoms: _432  and  _433
REMARK  181  A    between atoms: _437  and  _438
REMARK  182  A    between atoms: _443  and  _445
REMARK  183  A    between atoms: _445  and  _446
REMARK  184  A    between atoms: _445  and  _448
REMARK  185  A    between atoms: _451  and  _453
REMARK  186  A    between atoms: _453  and  _454
REMARK  187  A    between atoms: _453  and  _456
REMARK  188  A    between atoms: _456  and  _457
REMARK  189  A    between atoms: _462  and  _464
REMARK  190  A    between atoms: _464  and  _465
REMARK  191  A    between atoms: _464  and  _467
REMARK  192  A    between atoms: _467  and  _468
REMARK  193  A    between atoms: _471  and  _473
REMARK  194  A    between atoms: _473  and  _474
REMARK  195  A    between atoms: _473  and  _476
REMARK  196  A    between atoms: _476  and  _477
REMARK  197  A    between atoms: _480  and  _482
REMARK  198  A    between atoms: _482  and  _483
REMARK  199  A    between atoms: _485  and  _487
REMARK  200  A    between atoms: _487  and  _488
REMARK  201  A    between atoms: _487  and  _490
REMARK  202  A    between atoms: _490  and  _491
REMARK  203  A    between atoms: _491  and  _492
REMARK  204  A    between atoms: _492  and  _493
REMARK  205  A    between atoms: _502  and  _504
REMARK  206  A    between atoms: _504  and  _505
REMARK  207  A    between atoms: _504  and  _507
REMARK  208  A    between atoms: _507  and  _508
REMARK                            x       y       z     vdW  Elec       q    Type
REMARK                         _______ _______ _______ _____ _____    ______ ____
ROOT
ATOM      1  O   HOH     1       9.036 -23.198 -11.067  0.00  0.00    +0.000 OA
ENDROOT
TORSDOF 0
REMARK  Name = ../refined-set-2016/3lzu/3lzu_pocket.pdb
REMARK  208 active torsions:
REMARK  status: ('A' for Active; 'I' for Inactive)
REMARK    1  A    between atoms: _1  and  _3
REMARK    2  A    between atoms: _3  and  _4
REMARK    3  A    between atoms: _3  and  _6
REMARK    4  A    between atoms: _6  and  _7
REMARK    5  A    between atoms: _7  and  _8
REMARK    6  A    between atoms: _8  and  _9
REMARK    7  A    between atoms: _18  and  _20
REMARK    8  A    between atoms: _20  and  _21
REMARK    9  A    between atoms: _20  and  _23
REMARK   10  A    between atoms: _23  and  _24
REMARK   11  A    between atoms: _27  and  _29
REMARK   12  A    between atoms: _29  and  _30
REMARK   13  A    between atoms: _29  and  _32
REMARK   14  A    between atoms: _32  and  _33
REMARK   15  A    between atoms: _36  and  _38
REMARK   16  A    between atoms: _38  and  _39
REMARK   17  A    between atoms: _38  and  _41
REMARK   18  A    between atoms: _41  and  _42
REMARK   19  A    between atoms: _45  and  _47
REMARK   20  A    between atoms: _47  and  _48
REMARK   21  A    between atoms: _47  and  _50
REMARK   22  A    between atoms: _50  and  _51
REMARK   23  A    between atoms: _54  and  _56
REMARK   24  A    between atoms: _56  and  _57
REMARK   25  A    between atoms: _59  and  _61
REMARK   26  A    between atoms: _61  and  _62
REMARK   27  A    between atoms: _65  and  _67
REMARK   28  A    between atoms: _67  and  _68
REMARK   29  A    between atoms: _67  and  _70
REMARK   30  A    between atoms: _70  and  _71
REMARK   31  A    between atoms: _74  and  _76
REMARK   32  A    between atoms: _76  and  _77
REMARK   33  A    between atoms: _76  and  _79
REMARK   34  A    between atoms: _79  and  _80
REMARK   35  A    between atoms: _83  and  _85
REMARK   36  A    between atoms: _85  and  _86
REMARK   37  A    between atoms: _85  and  _88
REMARK   38  A    between atoms: _88  and  _89
REMARK   39  A    between atoms: _92  and  _94
REMARK   40  A    between atoms: _94  and  _95
REMARK   41  A    between atoms: _94  and  _97
REMARK   42  A    between atoms: _100  and  _102
REMARK   43  A    between atoms: _102  and  _103
REMARK   44  A    between atoms: _102  and  _105
REMARK   45  A    between atoms: _105  and  _106
REMARK   46  A    between atoms: _106  and  _107
REMARK   47  A    between atoms: _109  and  _111
REMARK   48  A    between atoms: _111  and  _112
REMARK   49  A    between atoms: _111  and  _114
REMARK   50  A    between atoms: _114  and  _115
REMARK   51  A    between atoms: _118  and  _120
REMARK   52  A    between atoms: _120  and  _121
REMARK   53  A    between atoms: _123  and  _125
REMARK   54  A    between atoms: _125  and  _126
REMARK   55  A    between atoms: _128  and  _130
REMARK   56  A    between atoms: _130  and  _131
REMARK   57  A    between atoms: _130  and  _133
REMARK   58  A    between atoms: _133  and  _134
REMARK   59  A    between atoms: _137  and  _139
REMARK   60  A    between atoms: _139  and  _140
REMARK   61  A    between atoms: _142  and  _144
REMARK   62  A    between atoms: _144  and  _145
REMARK   63  A    between atoms: _147  and  _149
REMARK   64  A    between atoms: _149  and  _150
REMARK   65  A    between atoms: _149  and  _152
REMARK   66  A    between atoms: _152  and  _153
REMARK   67  A    between atoms: _156  and  _158
REMARK   68  A    between atoms: _158  and  _159
REMARK   69  A    between atoms: _158  and  _161
REMARK   70  A    between atoms: _161  and  _162
REMARK   71  A    between atoms: _165  and  _167
REMARK   72  A    between atoms: _167  and  _168
REMARK   73  A    between atoms: _167  and  _170
REMARK   74  A    between atoms: _170  and  _171
REMARK   75  A    between atoms: _175  and  _176
REMARK   76  A    between atoms: _181  and  _183
REMARK   77  A    between atoms: _183  and  _184
REMARK   78  A    between atoms: _183  and  _186
REMARK   79  A    between atoms: _189  and  _191
REMARK   80  A    between atoms: _191  and  _192
REMARK   81  A    between atoms: _191  and  _194
REMARK   82  A    between atoms: _194  and  _195
REMARK   83  A    between atoms: _200  and  _202
REMARK   84  A    between atoms: _202  and  _203
REMARK   85  A    between atoms: _202  and  _205
REMARK   86  A    between atoms: _205  and  _206
REMARK   87  A    between atoms: _209  and  _211
REMARK   88  A    between atoms: _211  and  _212
REMARK   89  A    between atoms: _211  and  _214
REMARK   90  A    between atoms: _214  and  _215
REMARK   91  A    between atoms: _218  and  _220
REMARK   92  A    between atoms: _220  and  _221
REMARK   93  A    between atoms: _223  and  _225
REMARK   94  A    between atoms: _225  and  _226
REMARK   95  A    between atoms: _225  and  _228
REMARK   96  A    between atoms: _228  and  _229
REMARK   97  A    between atoms: _229  and  _230
REMARK   98  A    between atoms: _230  and  _231
REMARK   99  A    between atoms: _240  and  _242
REMARK  100  A    between atoms: _242  and  _243
REMARK  101  A    between atoms: _242  and  _245
REMARK  102  A    between atoms: _245  and  _246
REMARK  103  A    between atoms: _248  and  _250
REMARK  104  A    between atoms: _250  and  _251
REMARK  105  A    between atoms: _250  and  _253
REMARK  106  A    between atoms: _253  and  _254
REMARK  107  A    between atoms: _254  and  _255
REMARK  108  A    between atoms: _255  and  _256
REMARK  109  A    between atoms: _265  and  _267
REMARK  110  A    between atoms: _267  and  _268
REMARK  111  A    between atoms: _267  and  _270
REMARK  112  A    between atoms: _270  and  _271
REMARK  113  A    between atoms: _274  and  _276
REMARK  114  A    between atoms: _276  and  _277
REMARK  115  A    between atoms: _276  and  _279
REMARK  116  A    between atoms: _279  and  _280
REMARK  117  A    between atoms: _283  and  _285
REMARK  118  A    between atoms: _285  and  _286
REMARK  119  A    between atoms: _285  and  _288
REMARK  120  A    between atoms: _288  and  _289
REMARK  121  A    between atoms: _292  and  _294
REMARK  122  A    between atoms: _294  and  _295
REMARK  123  A    between atoms: _294  and  _297
REMARK  124  A    between atoms: _297  and  _298
REMARK  125  A    between atoms: _301  and  _303
REMARK  126  A    between atoms: _303  and  _304
REMARK  127  A    between atoms: _306  and  _308
REMARK  128  A    between atoms: _308  and  _309
REMARK  129  A    between atoms: _312  and  _314
REMARK  130  A    between atoms: _314  and  _315
REMARK  131  A    between atoms: _314  and  _317
REMARK  132  A    between atoms: _317  and  _318
REMARK  133  A    between atoms: _321  and  _323
REMARK  134  A    between atoms: _323  and  _324
REMARK  135  A    between atoms: _323  and  _326
REMARK  136  A    between atoms: _326  and  _327
REMARK  137  A    between atoms: _330  and  _332
REMARK  138  A    between atoms: _332  and  _333
REMARK  139  A    between atoms: _332  and  _335
REMARK  140  A    between atoms: _335  and  _336
REMARK  141  A    between atoms: _339  and  _341
REMARK  142  A    between atoms: _341  and  _342
REMARK  143  A    between atoms: _341  and  _344
REMARK  144  A    between atoms: _347  and  _349
REMARK  145  A    between atoms: _349  and  _350
REMARK  146  A    between atoms: _349  and  _352
REMARK  147  A    between atoms: _352  and  _353
REMARK  148  A    between atoms: _353  and  _354
REMARK  149  A    between atoms: _356  and  _358
REMARK  150  A    between atoms: _358  and  _359
REMARK  151  A    between atoms: _358  and  _361
REMARK  152  A    between atoms: _361  and  _362
REMARK  153  A    between atoms: _365  and  _367
REMARK  154  A    between atoms: _367  and  _368
REMARK  155  A    between atoms: _370  and  _372
REMARK  156  A    between atoms: _372  and  _373
REMARK  157  A    between atoms: _375  and  _377
REMARK  158  A    between atoms: _377  and  _378
REMARK  159  A    between atoms: _377  and  _380
REMARK  160  A    between atoms: _380  and  _381
REMARK  161  A    between atoms: _384  and  _386
REMARK  162  A    between atoms: _386  and  _387
REMARK  163  A    between atoms: _389  and  _391
REMARK  164  A    between atoms: _391  and  _392
REMARK  165  A    between atoms: _394  and  _396
REMARK  166  A    between atoms: _396  and  _397
REMARK  167  A    between atoms: _396  and  _399
REMARK  168  A    between atoms: _399  and  _400
REMARK  169  A    between atoms: _403  and  _405
REMARK  170  A    between atoms: _405  and  _406
REMARK  171  A    between atoms: _405  and  _408
REMARK  172  A    between atoms: _411  and  _413
REMARK  173  A    between atoms: _413  and  _414
REMARK  174  A    between atoms: _413  and  _416
REMARK  175  A    between atoms: _416  and  _417
REMARK  176  A    between atoms: _421  and  _422
REMARK  177  A    between atoms: _427  and  _429
REMARK  178  A    between atoms: _429  and  _430
REMARK  179  A    between atoms: _429  and  _432
REMARK  180  A    between atoms: _432  and  _433
REMARK  181  A    between atoms: _437  and  _438
REMARK  182  A    between atoms: _443  and  _445
REMARK  183  A    between atoms: _445  and  _446
REMARK  184  A    between atoms: _445  and  _448
REMARK  185  A    between atoms: _451  and  _453
REMARK  186  A    between atoms: _453  and  _454
REMARK  187  A    between atoms: _453  and  _456
REMARK  188  A    between atoms: _456  and  _457
REMARK  189  A    between atoms: _462  and  _464
REMARK  190  A    between atoms: _464  and  _465
REMARK  191  A    between atoms: _464  and  _467
REMARK  192  A    between atoms: _467  and  _468
REMARK  193  A    between atoms: _471  and  _473
REMARK  194  A    between atoms: _473  and  _474
REMARK  195  A    between atoms: _473  and  _476
REMARK  196  A    between atoms: _476  and  _477
REMARK  197  A    between atoms: _480  and  _482
REMARK  198  A    between atoms: _482  and  _483
REMARK  199  A    between atoms: _485  and  _487
REMARK  200  A    between atoms: _487  and  _488
REMARK  201  A    between atoms: _487  and  _490
REMARK  202  A    between atoms: _490  and  _491
REMARK  203  A    between atoms: _491  and  _492
REMARK  204  A    between atoms: _492  and  _493
REMARK  205  A    between atoms: _502  and  _504
REMARK  206  A    between atoms: _504  and  _505
REMARK  207  A    between atoms: _504  and  _507
REMARK  208  A    between atoms: _507  and  _508
REMARK                            x       y       z     vdW  Elec       q    Type
REMARK                         _______ _______ _______ _____ _____    ______ ____
ROOT
ATOM      1  O   HOH     1       3.374 -21.327  -3.637  0.00  0.00    +0.000 OA
ENDROOT
TORSDOF 0
REMARK  Name = ../refined-set-2016/3lzu/3lzu_pocket.pdb
REMARK  208 active torsions:
REMARK  status: ('A' for Active; 'I' for Inactive)
REMARK    1  A    between atoms: _1  and  _3
REMARK    2  A    between atoms: _3  and  _4
REMARK    3  A    between atoms: _3  and  _6
REMARK    4  A    between atoms: _6  and  _7
REMARK    5  A    between atoms: _7  and  _8
REMARK    6  A    between atoms: _8  and  _9
REMARK    7  A    between atoms: _18  and  _20
REMARK    8  A    between atoms: _20  and  _21
REMARK    9  A    between atoms: _20  and  _23
REMARK   10  A    between atoms: _23  and  _24
REMARK   11  A    between atoms: _27  and  _29
REMARK   12  A    between atoms: _29  and  _30
REMARK   13  A    between atoms: _29  and  _32
REMARK   14  A    between atoms: _32  and  _33
REMARK   15  A    between atoms: _36  and  _38
REMARK   16  A    between atoms: _38  and  _39
REMARK   17  A    between atoms: _38  and  _41
REMARK   18  A    between atoms: _41  and  _42
REMARK   19  A    between atoms: _45  and  _47
REMARK   20  A    between atoms: _47  and  _48
REMARK   21  A    between atoms: _47  and  _50
REMARK   22  A    between atoms: _50  and  _51
REMARK   23  A    between atoms: _54  and  _56
REMARK   24  A    between atoms: _56  and  _57
REMARK   25  A    between atoms: _59  and  _61
REMARK   26  A    between atoms: _61  and  _62
REMARK   27  A    between atoms: _65  and  _67
REMARK   28  A    between atoms: _67  and  _68
REMARK   29  A    between atoms: _67  and  _70
REMARK   30  A    between atoms: _70  and  _71
REMARK   31  A    between atoms: _74  and  _76
REMARK   32  A    between atoms: _76  and  _77
REMARK   33  A    between atoms: _76  and  _79
REMARK   34  A    between atoms: _79  and  _80
REMARK   35  A    between atoms: _83  and  _85
REMARK   36  A    between atoms: _85  and  _86
REMARK   37  A    between atoms: _85  and  _88
REMARK   38  A    between atoms: _88  and  _89
REMARK   39  A    between atoms: _92  and  _94
REMARK   40  A    between atoms: _94  and  _95
REMARK   41  A    between atoms: _94  and  _97
REMARK   42  A    between atoms: _100  and  _102
REMARK   43  A    between atoms: _102  and  _103
REMARK   44  A    between atoms: _102  and  _105
REMARK   45  A    between atoms: _105  and  _106
REMARK   46  A    between atoms: _106  and  _107
REMARK   47  A    between atoms: _109  and  _111
REMARK   48  A    between atoms: _111  and  _112
REMARK   49  A    between atoms: _111  and  _114
REMARK   50  A    between atoms: _114  and  _115
REMARK   51  A    between atoms: _118  and  _120
REMARK   52  A    between atoms: _120  and  _121
REMARK   53  A    between atoms: _123  and  _125
REMARK   54  A    between atoms: _125  and  _126
REMARK   55  A    between atoms: _128  and  _130
REMARK   56  A    between atoms: _130  and  _131
REMARK   57  A    between atoms: _130  and  _133
REMARK   58  A    between atoms: _133  and  _134
REMARK   59  A    between atoms: _137  and  _139
REMARK   60  A    between atoms: _139  and  _140
REMARK   61  A    between atoms: _142  and  _144
REMARK   62  A    between atoms: _144  and  _145
REMARK   63  A    between atoms: _147  and  _149
REMARK   64  A    between atoms: _149  and  _150
REMARK   65  A    between atoms: _149  and  _152
REMARK   66  A    between atoms: _152  and  _153
REMARK   67  A    between atoms: _156  and  _158
REMARK   68  A    between atoms: _158  and  _159
REMARK   69  A    between atoms: _158  and  _161
REMARK   70  A    between atoms: _161  and  _162
REMARK   71  A    between atoms: _165  and  _167
REMARK   72  A    between atoms: _167  and  _168
REMARK   73  A    between atoms: _167  and  _170
REMARK   74  A    between atoms: _170  and  _171
REMARK   75  A    between atoms: _175  and  _176
REMARK   76  A    between atoms: _181  and  _183
REMARK   77  A    between atoms: _183  and  _184
REMARK   78  A    between atoms: _183  and  _186
REMARK   79  A    between atoms: _189  and  _191
REMARK   80  A    between atoms: _191  and  _192
REMARK   81  A    between atoms: _191  and  _194
REMARK   82  A    between atoms: _194  and  _195
REMARK   83  A    between atoms: _200  and  _202
REMARK   84  A    between atoms: _202  and  _203
REMARK   85  A    between atoms: _202  and  _205
REMARK   86  A    between atoms: _205  and  _206
REMARK   87  A    between atoms: _209  and  _211
REMARK   88  A    between atoms: _211  and  _212
REMARK   89  A    between atoms: _211  and  _214
REMARK   90  A    between atoms: _214  and  _215
REMARK   91  A    between atoms: _218  and  _220
REMARK   92  A    between atoms: _220  and  _221
REMARK   93  A    between atoms: _223  and  _225
REMARK   94  A    between atoms: _225  and  _226
REMARK   95  A    between atoms: _225  and  _228
REMARK   96  A    between atoms: _228  and  _229
REMARK   97  A    between atoms: _229  and  _230
REMARK   98  A    between atoms: _230  and  _231
REMARK   99  A    between atoms: _240  and  _242
REMARK  100  A    between atoms: _242  and  _243
REMARK  101  A    between atoms: _242  and  _245
REMARK  102  A    between atoms: _245  and  _246
REMARK  103  A    between atoms: _248  and  _250
REMARK  104  A    between atoms: _250  and  _251
REMARK  105  A    between atoms: _250  and  _253
REMARK  106  A    between atoms: _253  and  _254
REMARK  107  A    between atoms: _254  and  _255
REMARK  108  A    between atoms: _255  and  _256
REMARK  109  A    between atoms: _265  and  _267
REMARK  110  A    between atoms: _267  and  _268
REMARK  111  A    between atoms: _267  and  _270
REMARK  112  A    between atoms: _270  and  _271
REMARK  113  A    between atoms: _274  and  _276
REMARK  114  A    between atoms: _276  and  _277
REMARK  115  A    between atoms: _276  and  _279
REMARK  116  A    between atoms: _279  and  _280
REMARK  117  A    between atoms: _283  and  _285
REMARK  118  A    between atoms: _285  and  _286
REMARK  119  A    between atoms: _285  and  _288
REMARK  120  A    between atoms: _288  and  _289
REMARK  121  A    between atoms: _292  and  _294
REMARK  122  A    between atoms: _294  and  _295
REMARK  123  A    between atoms: _294  and  _297
REMARK  124  A    between atoms: _297  and  _298
REMARK  125  A    between atoms: _301  and  _303
REMARK  126  A    between atoms: _303  and  _304
REMARK  127  A    between atoms: _306  and  _308
REMARK  128  A    between atoms: _308  and  _309
REMARK  129  A    between atoms: _312  and  _314
REMARK  130  A    between atoms: _314  and  _315
REMARK  131  A    between atoms: _314  and  _317
REMARK  132  A    between atoms: _317  and  _318
REMARK  133  A    between atoms: _321  and  _323
REMARK  134  A    between atoms: _323  and  _324
REMARK  135  A    between atoms: _323  and  _326
REMARK  136  A    between atoms: _326  and  _327
REMARK  137  A    between atoms: _330  and  _332
REMARK  138  A    between atoms: _332  and  _333
REMARK  139  A    between atoms: _332  and  _335
REMARK  140  A    between atoms: _335  and  _336
REMARK  141  A    between atoms: _339  and  _341
REMARK  142  A    between atoms: _341  and  _342
REMARK  143  A    between atoms: _341  and  _344
REMARK  144  A    between atoms: _347  and  _349
REMARK  145  A    between atoms: _349  and  _350
REMARK  146  A    between atoms: _349  and  _352
REMARK  147  A    between atoms: _352  and  _353
REMARK  148  A    between atoms: _353  and  _354
REMARK  149  A    between atoms: _356  and  _358
REMARK  150  A    between atoms: _358  and  _359
REMARK  151  A    between atoms: _358  and  _361
REMARK  152  A    between atoms: _361  and  _362
REMARK  153  A    between atoms: _365  and  _367
REMARK  154  A    between atoms: _367  and  _368
REMARK  155  A    between atoms: _370  and  _372
REMARK  156  A    between atoms: _372  and  _373
REMARK  157  A    between atoms: _375  and  _377
REMARK  158  A    between atoms: _377  and  _378
REMARK  159  A    between atoms: _377  and  _380
REMARK  160  A    between atoms: _380  and  _381
REMARK  161  A    between atoms: _384  and  _386
REMARK  162  A    between atoms: _386  and  _387
REMARK  163  A    between atoms: _389  and  _391
REMARK  164  A    between atoms: _391  and  _392
REMARK  165  A    between atoms: _394  and  _396
REMARK  166  A    between atoms: _396  and  _397
REMARK  167  A    between atoms: _396  and  _399
REMARK  168  A    between atoms: _399  and  _400
REMARK  169  A    between atoms: _403  and  _405
REMARK  170  A    between atoms: _405  and  _406
REMARK  171  A    between atoms: _405  and  _408
REMARK  172  A    between atoms: _411  and  _413
REMARK  173  A    between atoms: _413  and  _414
REMARK  174  A    between atoms: _413  and  _416
REMARK  175  A    between atoms: _416  and  _417
REMARK  176  A    between atoms: _421  and  _422
REMARK  177  A    between atoms: _427  and  _429
REMARK  178  A    between atoms: _429  and  _430
REMARK  179  A    between atoms: _429  and  _432
REMARK  180  A    between atoms: _432  and  _433
REMARK  181  A    between atoms: _437  and  _438
REMARK  182  A    between atoms: _443  and  _445
REMARK  183  A    between atoms: _445  and  _446
REMARK  184  A    between atoms: _445  and  _448
REMARK  185  A    between atoms: _451  and  _453
REMARK  186  A    between atoms: _453  and  _454
REMARK  187  A    between atoms: _453  and  _456
REMARK  188  A    between atoms: _456  and  _457
REMARK  189  A    between atoms: _462  and  _464
REMARK  190  A    between atoms: _464  and  _465
REMARK  191  A    between atoms: _464  and  _467
REMARK  192  A    between atoms: _467  and  _468
REMARK  193  A    between atoms: _471  and  _473
REMARK  194  A    between atoms: _473  and  _474
REMARK  195  A    between atoms: _473  and  _476
REMARK  196  A    between atoms: _476  and  _477
REMARK  197  A    between atoms: _480  and  _482
REMARK  198  A    between atoms: _482  and  _483
REMARK  199  A    between atoms: _485  and  _487
REMARK  200  A    between atoms: _487  and  _488
REMARK  201  A    between atoms: _487  and  _490
REMARK  202  A    between atoms: _490  and  _491
REMARK  203  A    between atoms: _491  and  _492
REMARK  204  A    between atoms: _492  and  _493
REMARK  205  A    between atoms: _502  and  _504
REMARK  206  A    between atoms: _504  and  _505
REMARK  207  A    between atoms: _504  and  _507
REMARK  208  A    between atoms: _507  and  _508
REMARK                            x       y       z     vdW  Elec       q    Type
REMARK                         _______ _______ _______ _____ _____    ______ ____
ROOT
ATOM      1  O   HOH     1       0.556 -11.977  -2.054  0.00  0.00    +0.000 OA
ENDROOT
TORSDOF 0
REMARK  Name = ../refined-set-2016/3lzu/3lzu_pocket.pdb
REMARK  208 active torsions:
REMARK  status: ('A' for Active; 'I' for Inactive)
REMARK    1  A    between atoms: _1  and  _3
REMARK    2  A    between atoms: _3  and  _4
REMARK    3  A    between atoms: _3  and  _6
REMARK    4  A    between atoms: _6  and  _7
REMARK    5  A    between atoms: _7  and  _8
REMARK    6  A    between atoms: _8  and  _9
REMARK    7  A    between atoms: _18  and  _20
REMARK    8  A    between atoms: _20  and  _21
REMARK    9  A    between atoms: _20  and  _23
REMARK   10  A    between atoms: _23  and  _24
REMARK   11  A    between atoms: _27  and  _29
REMARK   12  A    between atoms: _29  and  _30
REMARK   13  A    between atoms: _29  and  _32
REMARK   14  A    between atoms: _32  and  _33
REMARK   15  A    between atoms: _36  and  _38
REMARK   16  A    between atoms: _38  and  _39
REMARK   17  A    between atoms: _38  and  _41
REMARK   18  A    between atoms: _41  and  _42
REMARK   19  A    between atoms: _45  and  _47
REMARK   20  A    between atoms: _47  and  _48
REMARK   21  A    between atoms: _47  and  _50
REMARK   22  A    between atoms: _50  and  _51
REMARK   23  A    between atoms: _54  and  _56
REMARK   24  A    between atoms: _56  and  _57
REMARK   25  A    between atoms: _59  and  _61
REMARK   26  A    between atoms: _61  and  _62
REMARK   27  A    between atoms: _65  and  _67
REMARK   28  A    between atoms: _67  and  _68
REMARK   29  A    between atoms: _67  and  _70
REMARK   30  A    between atoms: _70  and  _71
REMARK   31  A    between atoms: _74  and  _76
REMARK   32  A    between atoms: _76  and  _77
REMARK   33  A    between atoms: _76  and  _79
REMARK   34  A    between atoms: _79  and  _80
REMARK   35  A    between atoms: _83  and  _85
REMARK   36  A    between atoms: _85  and  _86
REMARK   37  A    between atoms: _85  and  _88
REMARK   38  A    between atoms: _88  and  _89
REMARK   39  A    between atoms: _92  and  _94
REMARK   40  A    between atoms: _94  and  _95
REMARK   41  A    between atoms: _94  and  _97
REMARK   42  A    between atoms: _100  and  _102
REMARK   43  A    between atoms: _102  and  _103
REMARK   44  A    between atoms: _102  and  _105
REMARK   45  A    between atoms: _105  and  _106
REMARK   46  A    between atoms: _106  and  _107
REMARK   47  A    between atoms: _109  and  _111
REMARK   48  A    between atoms: _111  and  _112
REMARK   49  A    between atoms: _111  and  _114
REMARK   50  A    between atoms: _114  and  _115
REMARK   51  A    between atoms: _118  and  _120
REMARK   52  A    between atoms: _120  and  _121
REMARK   53  A    between atoms: _123  and  _125
REMARK   54  A    between atoms: _125  and  _126
REMARK   55  A    between atoms: _128  and  _130
REMARK   56  A    between atoms: _130  and  _131
REMARK   57  A    between atoms: _130  and  _133
REMARK   58  A    between atoms: _133  and  _134
REMARK   59  A    between atoms: _137  and  _139
REMARK   60  A    between atoms: _139  and  _140
REMARK   61  A    between atoms: _142  and  _144
REMARK   62  A    between atoms: _144  and  _145
REMARK   63  A    between atoms: _147  and  _149
REMARK   64  A    between atoms: _149  and  _150
REMARK   65  A    between atoms: _149  and  _152
REMARK   66  A    between atoms: _152  and  _153
REMARK   67  A    between atoms: _156  and  _158
REMARK   68  A    between atoms: _158  and  _159
REMARK   69  A    between atoms: _158  and  _161
REMARK   70  A    between atoms: _161  and  _162
REMARK   71  A    between atoms: _165  and  _167
REMARK   72  A    between atoms: _167  and  _168
REMARK   73  A    between atoms: _167  and  _170
REMARK   74  A    between atoms: _170  and  _171
REMARK   75  A    between atoms: _175  and  _176
REMARK   76  A    between atoms: _181  and  _183
REMARK   77  A    between atoms: _183  and  _184
REMARK   78  A    between atoms: _183  and  _186
REMARK   79  A    between atoms: _189  and  _191
REMARK   80  A    between atoms: _191  and  _192
REMARK   81  A    between atoms: _191  and  _194
REMARK   82  A    between atoms: _194  and  _195
REMARK   83  A    between atoms: _200  and  _202
REMARK   84  A    between atoms: _202  and  _203
REMARK   85  A    between atoms: _202  and  _205
REMARK   86  A    between atoms: _205  and  _206
REMARK   87  A    between atoms: _209  and  _211
REMARK   88  A    between atoms: _211  and  _212
REMARK   89  A    between atoms: _211  and  _214
REMARK   90  A    between atoms: _214  and  _215
REMARK   91  A    between atoms: _218  and  _220
REMARK   92  A    between atoms: _220  and  _221
REMARK   93  A    between atoms: _223  and  _225
REMARK   94  A    between atoms: _225  and  _226
REMARK   95  A    between atoms: _225  and  _228
REMARK   96  A    between atoms: _228  and  _229
REMARK   97  A    between atoms: _229  and  _230
REMARK   98  A    between atoms: _230  and  _231
REMARK   99  A    between atoms: _240  and  _242
REMARK  100  A    between atoms: _242  and  _243
REMARK  101  A    between atoms: _242  and  _245
REMARK  102  A    between atoms: _245  and  _246
REMARK  103  A    between atoms: _248  and  _250
REMARK  104  A    between atoms: _250  and  _251
REMARK  105  A    between atoms: _250  and  _253
REMARK  106  A    between atoms: _253  and  _254
REMARK  107  A    between atoms: _254  and  _255
REMARK  108  A    between atoms: _255  and  _256
REMARK  109  A    between atoms: _265  and  _267
REMARK  110  A    between atoms: _267  and  _268
REMARK  111  A    between atoms: _267  and  _270
REMARK  112  A    between atoms: _270  and  _271
REMARK  113  A    between atoms: _274  and  _276
REMARK  114  A    between atoms: _276  and  _277
REMARK  115  A    between atoms: _276  and  _279
REMARK  116  A    between atoms: _279  and  _280
REMARK  117  A    between atoms: _283  and  _285
REMARK  118  A    between atoms: _285  and  _286
REMARK  119  A    between atoms: _285  and  _288
REMARK  120  A    between atoms: _288  and  _289
REMARK  121  A    between atoms: _292  and  _294
REMARK  122  A    between atoms: _294  and  _295
REMARK  123  A    between atoms: _294  and  _297
REMARK  124  A    between atoms: _297  and  _298
REMARK  125  A    between atoms: _301  and  _303
REMARK  126  A    between atoms: _303  and  _304
REMARK  127  A    between atoms: _306  and  _308
REMARK  128  A    between atoms: _308  and  _309
REMARK  129  A    between atoms: _312  and  _314
REMARK  130  A    between atoms: _314  and  _315
REMARK  131  A    between atoms: _314  and  _317
REMARK  132  A    between atoms: _317  and  _318
REMARK  133  A    between atoms: _321  and  _323
REMARK  134  A    between atoms: _323  and  _324
REMARK  135  A    between atoms: _323  and  _326
REMARK  136  A    between atoms: _326  and  _327
REMARK  137  A    between atoms: _330  and  _332
REMARK  138  A    between atoms: _332  and  _333
REMARK  139  A    between atoms: _332  and  _335
REMARK  140  A    between atoms: _335  and  _336
REMARK  141  A    between atoms: _339  and  _341
REMARK  142  A    between atoms: _341  and  _342
REMARK  143  A    between atoms: _341  and  _344
REMARK  144  A    between atoms: _347  and  _349
REMARK  145  A    between atoms: _349  and  _350
REMARK  146  A    between atoms: _349  and  _352
REMARK  147  A    between atoms: _352  and  _353
REMARK  148  A    between atoms: _353  and  _354
REMARK  149  A    between atoms: _356  and  _358
REMARK  150  A    between atoms: _358  and  _359
REMARK  151  A    between atoms: _358  and  _361
REMARK  152  A    between atoms: _361  and  _362
REMARK  153  A    between atoms: _365  and  _367
REMARK  154  A    between atoms: _367  and  _368
REMARK  155  A    between atoms: _370  and  _372
REMARK  156  A    between atoms: _372  and  _373
REMARK  157  A    between atoms: _375  and  _377
REMARK  158  A    between atoms: _377  and  _378
REMARK  159  A    between atoms: _377  and  _380
REMARK  160  A    between atoms: _380  and  _381
REMARK  161  A    between atoms: _384  and  _386
REMARK  162  A    between atoms: _386  and  _387
REMARK  163  A    between atoms: _389  and  _391
REMARK  164  A    between atoms: _391  and  _392
REMARK  165  A    between atoms: _394  and  _396
REMARK  166  A    between atoms: _396  and  _397
REMARK  167  A    between atoms: _396  and  _399
REMARK  168  A    between atoms: _399  and  _400
REMARK  169  A    between atoms: _403  and  _405
REMARK  170  A    between atoms: _405  and  _406
REMARK  171  A    between atoms: _405  and  _408
REMARK  172  A    between atoms: _411  and  _413
REMARK  173  A    between atoms: _413  and  _414
REMARK  174  A    between atoms: _413  and  _416
REMARK  175  A    between atoms: _416  and  _417
REMARK  176  A    between atoms: _421  and  _422
REMARK  177  A    between atoms: _427  and  _429
REMARK  178  A    between atoms: _429  and  _430
REMARK  179  A    between atoms: _429  and  _432
REMARK  180  A    between atoms: _432  and  _433
REMARK  181  A    between atoms: _437  and  _438
REMARK  182  A    between atoms: _443  and  _445
REMARK  183  A    between atoms: _445  and  _446
REMARK  184  A    between atoms: _445  and  _448
REMARK  185  A    between atoms: _451  and  _453
REMARK  186  A    between atoms: _453  and  _454
REMARK  187  A    between atoms: _453  and  _456
REMARK  188  A    between atoms: _456  and  _457
REMARK  189  A    between atoms: _462  and  _464
REMARK  190  A    between atoms: _464  and  _465
REMARK  191  A    between atoms: _464  and  _467
REMARK  192  A    between atoms: _467  and  _468
REMARK  193  A    between atoms: _471  and  _473
REMARK  194  A    between atoms: _473  and  _474
REMARK  195  A    between atoms: _473  and  _476
REMARK  196  A    between atoms: _476  and  _477
REMARK  197  A    between atoms: _480  and  _482
REMARK  198  A    between atoms: _482  and  _483
REMARK  199  A    between atoms: _485  and  _487
REMARK  200  A    between atoms: _487  and  _488
REMARK  201  A    between atoms: _487  and  _490
REMARK  202  A    between atoms: _490  and  _491
REMARK  203  A    between atoms: _491  and  _492
REMARK  204  A    between atoms: _492  and  _493
REMARK  205  A    between atoms: _502  and  _504
REMARK  206  A    between atoms: _504  and  _505
REMARK  207  A    between atoms: _504  and  _507
REMARK  208  A    between atoms: _507  and  _508
REMARK                            x       y       z     vdW  Elec       q    Type
REMARK                         _______ _______ _______ _____ _____    ______ ____
ROOT
ATOM      1  O   HOH     1       0.486 -14.565  -3.433  0.00  0.00    +0.000 OA
ENDROOT
TORSDOF 0
REMARK  Name = ../refined-set-2016/3lzu/3lzu_pocket.pdb
REMARK  208 active torsions:
REMARK  status: ('A' for Active; 'I' for Inactive)
REMARK    1  A    between atoms: _1  and  _3
REMARK    2  A    between atoms: _3  and  _4
REMARK    3  A    between atoms: _3  and  _6
REMARK    4  A    between atoms: _6  and  _7
REMARK    5  A    between atoms: _7  and  _8
REMARK    6  A    between atoms: _8  and  _9
REMARK    7  A    between atoms: _18  and  _20
REMARK    8  A    between atoms: _20  and  _21
REMARK    9  A    between atoms: _20  and  _23
REMARK   10  A    between atoms: _23  and  _24
REMARK   11  A    between atoms: _27  and  _29
REMARK   12  A    between atoms: _29  and  _30
REMARK   13  A    between atoms: _29  and  _32
REMARK   14  A    between atoms: _32  and  _33
REMARK   15  A    between atoms: _36  and  _38
REMARK   16  A    between atoms: _38  and  _39
REMARK   17  A    between atoms: _38  and  _41
REMARK   18  A    between atoms: _41  and  _42
REMARK   19  A    between atoms: _45  and  _47
REMARK   20  A    between atoms: _47  and  _48
REMARK   21  A    between atoms: _47  and  _50
REMARK   22  A    between atoms: _50  and  _51
REMARK   23  A    between atoms: _54  and  _56
REMARK   24  A    between atoms: _56  and  _57
REMARK   25  A    between atoms: _59  and  _61
REMARK   26  A    between atoms: _61  and  _62
REMARK   27  A    between atoms: _65  and  _67
REMARK   28  A    between atoms: _67  and  _68
REMARK   29  A    between atoms: _67  and  _70
REMARK   30  A    between atoms: _70  and  _71
REMARK   31  A    between atoms: _74  and  _76
REMARK   32  A    between atoms: _76  and  _77
REMARK   33  A    between atoms: _76  and  _79
REMARK   34  A    between atoms: _79  and  _80
REMARK   35  A    between atoms: _83  and  _85
REMARK   36  A    between atoms: _85  and  _86
REMARK   37  A    between atoms: _85  and  _88
REMARK   38  A    between atoms: _88  and  _89
REMARK   39  A    between atoms: _92  and  _94
REMARK   40  A    between atoms: _94  and  _95
REMARK   41  A    between atoms: _94  and  _97
REMARK   42  A    between atoms: _100  and  _102
REMARK   43  A    between atoms: _102  and  _103
REMARK   44  A    between atoms: _102  and  _105
REMARK   45  A    between atoms: _105  and  _106
REMARK   46  A    between atoms: _106  and  _107
REMARK   47  A    between atoms: _109  and  _111
REMARK   48  A    between atoms: _111  and  _112
REMARK   49  A    between atoms: _111  and  _114
REMARK   50  A    between atoms: _114  and  _115
REMARK   51  A    between atoms: _118  and  _120
REMARK   52  A    between atoms: _120  and  _121
REMARK   53  A    between atoms: _123  and  _125
REMARK   54  A    between atoms: _125  and  _126
REMARK   55  A    between atoms: _128  and  _130
REMARK   56  A    between atoms: _130  and  _131
REMARK   57  A    between atoms: _130  and  _133
REMARK   58  A    between atoms: _133  and  _134
REMARK   59  A    between atoms: _137  and  _139
REMARK   60  A    between atoms: _139  and  _140
REMARK   61  A    between atoms: _142  and  _144
REMARK   62  A    between atoms: _144  and  _145
REMARK   63  A    between atoms: _147  and  _149
REMARK   64  A    between atoms: _149  and  _150
REMARK   65  A    between atoms: _149  and  _152
REMARK   66  A    between atoms: _152  and  _153
REMARK   67  A    between atoms: _156  and  _158
REMARK   68  A    between atoms: _158  and  _159
REMARK   69  A    between atoms: _158  and  _161
REMARK   70  A    between atoms: _161  and  _162
REMARK   71  A    between atoms: _165  and  _167
REMARK   72  A    between atoms: _167  and  _168
REMARK   73  A    between atoms: _167  and  _170
REMARK   74  A    between atoms: _170  and  _171
REMARK   75  A    between atoms: _175  and  _176
REMARK   76  A    between atoms: _181  and  _183
REMARK   77  A    between atoms: _183  and  _184
REMARK   78  A    between atoms: _183  and  _186
REMARK   79  A    between atoms: _189  and  _191
REMARK   80  A    between atoms: _191  and  _192
REMARK   81  A    between atoms: _191  and  _194
REMARK   82  A    between atoms: _194  and  _195
REMARK   83  A    between atoms: _200  and  _202
REMARK   84  A    between atoms: _202  and  _203
REMARK   85  A    between atoms: _202  and  _205
REMARK   86  A    between atoms: _205  and  _206
REMARK   87  A    between atoms: _209  and  _211
REMARK   88  A    between atoms: _211  and  _212
REMARK   89  A    between atoms: _211  and  _214
REMARK   90  A    between atoms: _214  and  _215
REMARK   91  A    between atoms: _218  and  _220
REMARK   92  A    between atoms: _220  and  _221
REMARK   93  A    between atoms: _223  and  _225
REMARK   94  A    between atoms: _225  and  _226
REMARK   95  A    between atoms: _225  and  _228
REMARK   96  A    between atoms: _228  and  _229
REMARK   97  A    between atoms: _229  and  _230
REMARK   98  A    between atoms: _230  and  _231
REMARK   99  A    between atoms: _240  and  _242
REMARK  100  A    between atoms: _242  and  _243
REMARK  101  A    between atoms: _242  and  _245
REMARK  102  A    between atoms: _245  and  _246
REMARK  103  A    between atoms: _248  and  _250
REMARK  104  A    between atoms: _250  and  _251
REMARK  105  A    between atoms: _250  and  _253
REMARK  106  A    between atoms: _253  and  _254
REMARK  107  A    between atoms: _254  and  _255
REMARK  108  A    between atoms: _255  and  _256
REMARK  109  A    between atoms: _265  and  _267
REMARK  110  A    between atoms: _267  and  _268
REMARK  111  A    between atoms: _267  and  _270
REMARK  112  A    between atoms: _270  and  _271
REMARK  113  A    between atoms: _274  and  _276
REMARK  114  A    between atoms: _276  and  _277
REMARK  115  A    between atoms: _276  and  _279
REMARK  116  A    between atoms: _279  and  _280
REMARK  117  A    between atoms: _283  and  _285
REMARK  118  A    between atoms: _285  and  _286
REMARK  119  A    between atoms: _285  and  _288
REMARK  120  A    between atoms: _288  and  _289
REMARK  121  A    between atoms: _292  and  _294
REMARK  122  A    between atoms: _294  and  _295
REMARK  123  A    between atoms: _294  and  _297
REMARK  124  A    between atoms: _297  and  _298
REMARK  125  A    between atoms: _301  and  _303
REMARK  126  A    between atoms: _303  and  _304
REMARK  127  A    between atoms: _306  and  _308
REMARK  128  A    between atoms: _308  and  _309
REMARK  129  A    between atoms: _312  and  _314
REMARK  130  A    between atoms: _314  and  _315
REMARK  131  A    between atoms: _314  and  _317
REMARK  132  A    between atoms: _317  and  _318
REMARK  133  A    between atoms: _321  and  _323
REMARK  134  A    between atoms: _323  and  _324
REMARK  135  A    between atoms: _323  and  _326
REMARK  136  A    between atoms: _326  and  _327
REMARK  137  A    between atoms: _330  and  _332
REMARK  138  A    between atoms: _332  and  _333
REMARK  139  A    between atoms: _332  and  _335
REMARK  140  A    between atoms: _335  and  _336
REMARK  141  A    between atoms: _339  and  _341
REMARK  142  A    between atoms: _341  and  _342
REMARK  143  A    between atoms: _341  and  _344
REMARK  144  A    between atoms: _347  and  _349
REMARK  145  A    between atoms: _349  and  _350
REMARK  146  A    between atoms: _349  and  _352
REMARK  147  A    between atoms: _352  and  _353
REMARK  148  A    between atoms: _353  and  _354
REMARK  149  A    between atoms: _356  and  _358
REMARK  150  A    between atoms: _358  and  _359
REMARK  151  A    between atoms: _358  and  _361
REMARK  152  A    between atoms: _361  and  _362
REMARK  153  A    between atoms: _365  and  _367
REMARK  154  A    between atoms: _367  and  _368
REMARK  155  A    between atoms: _370  and  _372
REMARK  156  A    between atoms: _372  and  _373
REMARK  157  A    between atoms: _375  and  _377
REMARK  158  A    between atoms: _377  and  _378
REMARK  159  A    between atoms: _377  and  _380
REMARK  160  A    between atoms: _380  and  _381
REMARK  161  A    between atoms: _384  and  _386
REMARK  162  A    between atoms: _386  and  _387
REMARK  163  A    between atoms: _389  and  _391
REMARK  164  A    between atoms: _391  and  _392
REMARK  165  A    between atoms: _394  and  _396
REMARK  166  A    between atoms: _396  and  _397
REMARK  167  A    between atoms: _396  and  _399
REMARK  168  A    between atoms: _399  and  _400
REMARK  169  A    between atoms: _403  and  _405
REMARK  170  A    between atoms: _405  and  _406
REMARK  171  A    between atoms: _405  and  _408
REMARK  172  A    between atoms: _411  and  _413
REMARK  173  A    between atoms: _413  and  _414
REMARK  174  A    between atoms: _413  and  _416
REMARK  175  A    between atoms: _416  and  _417
REMARK  176  A    between atoms: _421  and  _422
REMARK  177  A    between atoms: _427  and  _429
REMARK  178  A    between atoms: _429  and  _430
REMARK  179  A    between atoms: _429  and  _432
REMARK  180  A    between atoms: _432  and  _433
REMARK  181  A    between atoms: _437  and  _438
REMARK  182  A    between atoms: _443  and  _445
REMARK  183  A    between atoms: _445  and  _446
REMARK  184  A    between atoms: _445  and  _448
REMARK  185  A    between atoms: _451  and  _453
REMARK  186  A    between atoms: _453  and  _454
REMARK  187  A    between atoms: _453  and  _456
REMARK  188  A    between atoms: _456  and  _457
REMARK  189  A    between atoms: _462  and  _464
REMARK  190  A    between atoms: _464  and  _465
REMARK  191  A    between atoms: _464  and  _467
REMARK  192  A    between atoms: _467  and  _468
REMARK  193  A    between atoms: _471  and  _473
REMARK  194  A    between atoms: _473  and  _474
REMARK  195  A    between atoms: _473  and  _476
REMARK  196  A    between atoms: _476  and  _477
REMARK  197  A    between atoms: _480  and  _482
REMARK  198  A    between atoms: _482  and  _483
REMARK  199  A    between atoms: _485  and  _487
REMARK  200  A    between atoms: _487  and  _488
REMARK  201  A    between atoms: _487  and  _490
REMARK  202  A    between atoms: _490  and  _491
REMARK  203  A    between atoms: _491  and  _492
REMARK  204  A    between atoms: _492  and  _493
REMARK  205  A    between atoms: _502  and  _504
REMARK  206  A    between atoms: _504  and  _505
REMARK  207  A    between atoms: _504  and  _507
REMARK  208  A    between atoms: _507  and  _508
REMARK                            x       y       z     vdW  Elec       q    Type
REMARK                         _______ _______ _______ _____ _____    ______ ____
ROOT
ATOM      1  O   HOH     1       7.652 -13.166   0.199  0.00  0.00    +0.000 OA
ENDROOT
TORSDOF 0
REMARK  Name = ../refined-set-2016/3lzu/3lzu_pocket.pdb
REMARK  208 active torsions:
REMARK  status: ('A' for Active; 'I' for Inactive)
REMARK    1  A    between atoms: _1  and  _3
REMARK    2  A    between atoms: _3  and  _4
REMARK    3  A    between atoms: _3  and  _6
REMARK    4  A    between atoms: _6  and  _7
REMARK    5  A    between atoms: _7  and  _8
REMARK    6  A    between atoms: _8  and  _9
REMARK    7  A    between atoms: _18  and  _20
REMARK    8  A    between atoms: _20  and  _21
REMARK    9  A    between atoms: _20  and  _23
REMARK   10  A    between atoms: _23  and  _24
REMARK   11  A    between atoms: _27  and  _29
REMARK   12  A    between atoms: _29  and  _30
REMARK   13  A    between atoms: _29  and  _32
REMARK   14  A    between atoms: _32  and  _33
REMARK   15  A    between atoms: _36  and  _38
REMARK   16  A    between atoms: _38  and  _39
REMARK   17  A    between atoms: _38  and  _41
REMARK   18  A    between atoms: _41  and  _42
REMARK   19  A    between atoms: _45  and  _47
REMARK   20  A    between atoms: _47  and  _48
REMARK   21  A    between atoms: _47  and  _50
REMARK   22  A    between atoms: _50  and  _51
REMARK   23  A    between atoms: _54  and  _56
REMARK   24  A    between atoms: _56  and  _57
REMARK   25  A    between atoms: _59  and  _61
REMARK   26  A    between atoms: _61  and  _62
REMARK   27  A    between atoms: _65  and  _67
REMARK   28  A    between atoms: _67  and  _68
REMARK   29  A    between atoms: _67  and  _70
REMARK   30  A    between atoms: _70  and  _71
REMARK   31  A    between atoms: _74  and  _76
REMARK   32  A    between atoms: _76  and  _77
REMARK   33  A    between atoms: _76  and  _79
REMARK   34  A    between atoms: _79  and  _80
REMARK   35  A    between atoms: _83  and  _85
REMARK   36  A    between atoms: _85  and  _86
REMARK   37  A    between atoms: _85  and  _88
REMARK   38  A    between atoms: _88  and  _89
REMARK   39  A    between atoms: _92  and  _94
REMARK   40  A    between atoms: _94  and  _95
REMARK   41  A    between atoms: _94  and  _97
REMARK   42  A    between atoms: _100  and  _102
REMARK   43  A    between atoms: _102  and  _103
REMARK   44  A    between atoms: _102  and  _105
REMARK   45  A    between atoms: _105  and  _106
REMARK   46  A    between atoms: _106  and  _107
REMARK   47  A    between atoms: _109  and  _111
REMARK   48  A    between atoms: _111  and  _112
REMARK   49  A    between atoms: _111  and  _114
REMARK   50  A    between atoms: _114  and  _115
REMARK   51  A    between atoms: _118  and  _120
REMARK   52  A    between atoms: _120  and  _121
REMARK   53  A    between atoms: _123  and  _125
REMARK   54  A    between atoms: _125  and  _126
REMARK   55  A    between atoms: _128  and  _130
REMARK   56  A    between atoms: _130  and  _131
REMARK   57  A    between atoms: _130  and  _133
REMARK   58  A    between atoms: _133  and  _134
REMARK   59  A    between atoms: _137  and  _139
REMARK   60  A    between atoms: _139  and  _140
REMARK   61  A    between atoms: _142  and  _144
REMARK   62  A    between atoms: _144  and  _145
REMARK   63  A    between atoms: _147  and  _149
REMARK   64  A    between atoms: _149  and  _150
REMARK   65  A    between atoms: _149  and  _152
REMARK   66  A    between atoms: _152  and  _153
REMARK   67  A    between atoms: _156  and  _158
REMARK   68  A    between atoms: _158  and  _159
REMARK   69  A    between atoms: _158  and  _161
REMARK   70  A    between atoms: _161  and  _162
REMARK   71  A    between atoms: _165  and  _167
REMARK   72  A    between atoms: _167  and  _168
REMARK   73  A    between atoms: _167  and  _170
REMARK   74  A    between atoms: _170  and  _171
REMARK   75  A    between atoms: _175  and  _176
REMARK   76  A    between atoms: _181  and  _183
REMARK   77  A    between atoms: _183  and  _184
REMARK   78  A    between atoms: _183  and  _186
REMARK   79  A    between atoms: _189  and  _191
REMARK   80  A    between atoms: _191  and  _192
REMARK   81  A    between atoms: _191  and  _194
REMARK   82  A    between atoms: _194  and  _195
REMARK   83  A    between atoms: _200  and  _202
REMARK   84  A    between atoms: _202  and  _203
REMARK   85  A    between atoms: _202  and  _205
REMARK   86  A    between atoms: _205  and  _206
REMARK   87  A    between atoms: _209  and  _211
REMARK   88  A    between atoms: _211  and  _212
REMARK   89  A    between atoms: _211  and  _214
REMARK   90  A    between atoms: _214  and  _215
REMARK   91  A    between atoms: _218  and  _220
REMARK   92  A    between atoms: _220  and  _221
REMARK   93  A    between atoms: _223  and  _225
REMARK   94  A    between atoms: _225  and  _226
REMARK   95  A    between atoms: _225  and  _228
REMARK   96  A    between atoms: _228  and  _229
REMARK   97  A    between atoms: _229  and  _230
REMARK   98  A    between atoms: _230  and  _231
REMARK   99  A    between atoms: _240  and  _242
REMARK  100  A    between atoms: _242  and  _243
REMARK  101  A    between atoms: _242  and  _245
REMARK  102  A    between atoms: _245  and  _246
REMARK  103  A    between atoms: _248  and  _250
REMARK  104  A    between atoms: _250  and  _251
REMARK  105  A    between atoms: _250  and  _253
REMARK  106  A    between atoms: _253  and  _254
REMARK  107  A    between atoms: _254  and  _255
REMARK  108  A    between atoms: _255  and  _256
REMARK  109  A    between atoms: _265  and  _267
REMARK  110  A    between atoms: _267  and  _268
REMARK  111  A    between atoms: _267  and  _270
REMARK  112  A    between atoms: _270  and  _271
REMARK  113  A    between atoms: _274  and  _276
REMARK  114  A    between atoms: _276  and  _277
REMARK  115  A    between atoms: _276  and  _279
REMARK  116  A    between atoms: _279  and  _280
REMARK  117  A    between atoms: _283  and  _285
REMARK  118  A    between atoms: _285  and  _286
REMARK  119  A    between atoms: _285  and  _288
REMARK  120  A    between atoms: _288  and  _289
REMARK  121  A    between atoms: _292  and  _294
REMARK  122  A    between atoms: _294  and  _295
REMARK  123  A    between atoms: _294  and  _297
REMARK  124  A    between atoms: _297  and  _298
REMARK  125  A    between atoms: _301  and  _303
REMARK  126  A    between atoms: _303  and  _304
REMARK  127  A    between atoms: _306  and  _308
REMARK  128  A    between atoms: _308  and  _309
REMARK  129  A    between atoms: _312  and  _314
REMARK  130  A    between atoms: _314  and  _315
REMARK  131  A    between atoms: _314  and  _317
REMARK  132  A    between atoms: _317  and  _318
REMARK  133  A    between atoms: _321  and  _323
REMARK  134  A    between atoms: _323  and  _324
REMARK  135  A    between atoms: _323  and  _326
REMARK  136  A    between atoms: _326  and  _327
REMARK  137  A    between atoms: _330  and  _332
REMARK  138  A    between atoms: _332  and  _333
REMARK  139  A    between atoms: _332  and  _335
REMARK  140  A    between atoms: _335  and  _336
REMARK  141  A    between atoms: _339  and  _341
REMARK  142  A    between atoms: _341  and  _342
REMARK  143  A    between atoms: _341  and  _344
REMARK  144  A    between atoms: _347  and  _349
REMARK  145  A    between atoms: _349  and  _350
REMARK  146  A    between atoms: _349  and  _352
REMARK  147  A    between atoms: _352  and  _353
REMARK  148  A    between atoms: _353  and  _354
REMARK  149  A    between atoms: _356  and  _358
REMARK  150  A    between atoms: _358  and  _359
REMARK  151  A    between atoms: _358  and  _361
REMARK  152  A    between atoms: _361  and  _362
REMARK  153  A    between atoms: _365  and  _367
REMARK  154  A    between atoms: _367  and  _368
REMARK  155  A    between atoms: _370  and  _372
REMARK  156  A    between atoms: _372  and  _373
REMARK  157  A    between atoms: _375  and  _377
REMARK  158  A    between atoms: _377  and  _378
REMARK  159  A    between atoms: _377  and  _380
REMARK  160  A    between atoms: _380  and  _381
REMARK  161  A    between atoms: _384  and  _386
REMARK  162  A    between atoms: _386  and  _387
REMARK  163  A    between atoms: _389  and  _391
REMARK  164  A    between atoms: _391  and  _392
REMARK  165  A    between atoms: _394  and  _396
REMARK  166  A    between atoms: _396  and  _397
REMARK  167  A    between atoms: _396  and  _399
REMARK  168  A    between atoms: _399  and  _400
REMARK  169  A    between atoms: _403  and  _405
REMARK  170  A    between atoms: _405  and  _406
REMARK  171  A    between atoms: _405  and  _408
REMARK  172  A    between atoms: _411  and  _413
REMARK  173  A    between atoms: _413  and  _414
REMARK  174  A    between atoms: _413  and  _416
REMARK  175  A    between atoms: _416  and  _417
REMARK  176  A    between atoms: _421  and  _422
REMARK  177  A    between atoms: _427  and  _429
REMARK  178  A    between atoms: _429  and  _430
REMARK  179  A    between atoms: _429  and  _432
REMARK  180  A    between atoms: _432  and  _433
REMARK  181  A    between atoms: _437  and  _438
REMARK  182  A    between atoms: _443  and  _445
REMARK  183  A    between atoms: _445  and  _446
REMARK  184  A    between atoms: _445  and  _448
REMARK  185  A    between atoms: _451  and  _453
REMARK  186  A    between atoms: _453  and  _454
REMARK  187  A    between atoms: _453  and  _456
REMARK  188  A    between atoms: _456  and  _457
REMARK  189  A    between atoms: _462  and  _464
REMARK  190  A    between atoms: _464  and  _465
REMARK  191  A    between atoms: _464  and  _467
REMARK  192  A    between atoms: _467  and  _468
REMARK  193  A    between atoms: _471  and  _473
REMARK  194  A    between atoms: _473  and  _474
REMARK  195  A    between atoms: _473  and  _476
REMARK  196  A    between atoms: _476  and  _477
REMARK  197  A    between atoms: _480  and  _482
REMARK  198  A    between atoms: _482  and  _483
REMARK  199  A    between atoms: _485  and  _487
REMARK  200  A    between atoms: _487  and  _488
REMARK  201  A    between atoms: _487  and  _490
REMARK  202  A    between atoms: _490  and  _491
REMARK  203  A    between atoms: _491  and  _492
REMARK  204  A    between atoms: _492  and  _493
REMARK  205  A    between atoms: _502  and  _504
REMARK  206  A    between atoms: _504  and  _505
REMARK  207  A    between atoms: _504  and  _507
REMARK  208  A    between atoms: _507  and  _508
REMARK                            x       y       z     vdW  Elec       q    Type
REMARK                         _______ _______ _______ _____ _____    ______ ____
ROOT
ATOM      1  O   HOH     1      19.498  -8.576   1.002  0.00  0.00    +0.000 OA
ENDROOT
TORSDOF 0
